<?xml version="1.0" encoding="UTF-8"?>

<!-- generated on 2026-03-25 23:26:24 by Eclipse SUMO polyconvert Version 1.18.0
-->

<configuration xmlns:xsi="http://www.w3.org/2001/XMLSchema-instance" xsi:noNamespaceSchemaLocation="http://sumo.dlr.de/xsd/polyconvertConfiguration.xsd">

    <input>
        <net-file value="city_large.net.xml"/>
        <osm-files value="/home/vivek/research/NIT%20hackathon/final_year_project/sumo/raw_osm/Bombay.osm.gz"/>
        <osm.keep-full-type value="true"/>
        <type-file value="/usr/share/sumo/data/typemap/osmPolyconvert.typ.xml"/>
    </input>

    <output>
        <output-file value="city_large.poly.xml"/>
    </output>

    <report>
        <verbose value="true"/>
    </report>

</configuration>
