<?xml version="1.0" encoding="UTF-8"?>

<!-- generated on 2026-03-25 23:35:03 by Eclipse SUMO netconvert Version 1.18.0
-->

<configuration xmlns:xsi="http://www.w3.org/2001/XMLSchema-instance" xsi:noNamespaceSchemaLocation="http://sumo.dlr.de/xsd/netconvertConfiguration.xsd">

    <input>
        <osm-files value="/home/vivek/research/NIT%20hackathon/final_year_project/sumo/raw_osm/Bombay.osm.gz"/>
    </input>

    <output>
        <output-file value="city_big.net.xml"/>
    </output>

    <processing>
        <geometry.remove value="true"/>
    </processing>

    <tls_building>
        <tls.discard-simple value="true"/>
        <tls.guess-signals value="true"/>
    </tls_building>

    <ramp_guessing>
        <ramps.guess value="true"/>
    </ramp_guessing>

    <edge_removal>
        <remove-edges.by-vclass value="tram,rail_urban,rail_electric,bicycle,pedestrian"/>
    </edge_removal>

    <junctions>
        <junctions.join value="true"/>
    </junctions>

</configuration>
