<?xml version="1.0" encoding="UTF-8"?>

<!-- generated on 2026-03-24 16:17:09 by Eclipse SUMO netgenerate Version 1.18.0
<configuration xmlns:xsi="http://www.w3.org/2001/XMLSchema-instance" xsi:noNamespaceSchemaLocation="http://sumo.dlr.de/xsd/netgenerateConfiguration.xsd">

    <grid_network>
        <grid value="true"/>
        <grid.x-number value="8"/>
        <grid.y-number value="6"/>
        <grid.x-length value="120"/>
        <grid.y-length value="100"/>
        <grid.attach-length value="180"/>
    </grid_network>

    <output>
        <output-file value="sumo/networks/hackathon_demo.net.xml"/>
    </output>

    <processing>
        <roundabouts.guess value="true"/>
    </processing>

    <building_defaults>
        <default.lanenumber value="2"/>
        <default.speed value="16.67"/>
    </building_defaults>

    <tls_building>
        <tls.guess value="true"/>
    </tls_building>

</configuration>
-->

<net version="1.16" junctionCornerDetail="5" limitTurnSpeed="5.50" xmlns:xsi="http://www.w3.org/2001/XMLSchema-instance" xsi:noNamespaceSchemaLocation="http://sumo.dlr.de/xsd/net_file.xsd">

    <location netOffset="0.00,0.00" convBoundary="0.00,0.00,1200.00,860.00" origBoundary="0.00,0.00,1200.00,860.00" projParameter="!"/>

    <edge id=":A0_0" function="internal">
        <lane id=":A0_0_0" index="0" speed="6.51" length="9.03" shape="175.20,190.40 174.85,187.95 173.80,186.20 172.05,185.15 169.60,184.80"/>
    </edge>
    <edge id=":A0_1" function="internal">
        <lane id=":A0_1_0" index="0" speed="16.67" length="20.80" shape="175.20,190.40 175.20,169.60"/>
        <lane id=":A0_1_1" index="1" speed="16.67" length="20.80" shape="178.40,190.40 178.40,169.60"/>
    </edge>
    <edge id=":A0_3" function="internal">
        <lane id=":A0_3_0" index="0" speed="9.26" length="5.01" shape="178.40,190.40 179.11,185.44"/>
    </edge>
    <edge id=":A0_4" function="internal">
        <lane id=":A0_4_0" index="0" speed="3.65" length="1.44" shape="178.40,190.40 179.20,189.20"/>
    </edge>
    <edge id=":A0_20" function="internal">
        <lane id=":A0_20_0" index="0" speed="9.26" length="14.34" shape="179.11,185.44 179.15,185.15 181.40,181.40 185.15,179.15 190.40,178.40"/>
    </edge>
    <edge id=":A0_21" function="internal">
        <lane id=":A0_21_0" index="0" speed="3.65" length="3.23" shape="179.20,189.20 180.00,188.80 180.80,189.20 181.60,190.40"/>
    </edge>
    <edge id=":A0_5" function="internal">
        <lane id=":A0_5_0" index="0" speed="6.51" length="9.03" shape="190.40,184.80 187.95,185.15 186.20,186.20 185.15,187.95 184.80,190.40"/>
    </edge>
    <edge id=":A0_6" function="internal">
        <lane id=":A0_6_0" index="0" speed="16.67" length="20.80" shape="190.40,184.80 169.60,184.80"/>
        <lane id=":A0_6_1" index="1" speed="16.67" length="20.80" shape="190.40,181.60 169.60,181.60"/>
    </edge>
    <edge id=":A0_8" function="internal">
        <lane id=":A0_8_0" index="0" speed="9.26" length="5.01" shape="190.40,181.60 185.44,180.89"/>
    </edge>
    <edge id=":A0_9" function="internal">
        <lane id=":A0_9_0" index="0" speed="3.65" length="1.44" shape="190.40,181.60 189.20,180.80"/>
    </edge>
    <edge id=":A0_22" function="internal">
        <lane id=":A0_22_0" index="0" speed="9.26" length="14.34" shape="185.44,180.89 185.15,180.85 181.40,178.60 179.15,174.85 178.40,169.60"/>
    </edge>
    <edge id=":A0_23" function="internal">
        <lane id=":A0_23_0" index="0" speed="3.65" length="3.23" shape="189.20,180.80 188.80,180.00 189.20,179.20 190.40,178.40"/>
    </edge>
    <edge id=":A0_10" function="internal">
        <lane id=":A0_10_0" index="0" speed="6.51" length="9.03" shape="184.80,169.60 185.15,172.05 186.20,173.80 187.95,174.85 190.40,175.20"/>
    </edge>
    <edge id=":A0_11" function="internal">
        <lane id=":A0_11_0" index="0" speed="16.67" length="20.80" shape="184.80,169.60 184.80,190.40"/>
        <lane id=":A0_11_1" index="1" speed="16.67" length="20.80" shape="181.60,169.60 181.60,190.40"/>
    </edge>
    <edge id=":A0_13" function="internal">
        <lane id=":A0_13_0" index="0" speed="9.26" length="5.01" shape="181.60,169.60 180.89,174.56"/>
    </edge>
    <edge id=":A0_14" function="internal">
        <lane id=":A0_14_0" index="0" speed="3.65" length="1.44" shape="181.60,169.60 180.80,170.80"/>
    </edge>
    <edge id=":A0_24" function="internal">
        <lane id=":A0_24_0" index="0" speed="9.26" length="14.34" shape="180.89,174.56 180.85,174.85 178.60,178.60 174.85,180.85 169.60,181.60"/>
    </edge>
    <edge id=":A0_25" function="internal">
        <lane id=":A0_25_0" index="0" speed="3.65" length="3.23" shape="180.80,170.80 180.00,171.20 179.20,170.80 178.40,169.60"/>
    </edge>
    <edge id=":A0_15" function="internal">
        <lane id=":A0_15_0" index="0" speed="6.51" length="9.03" shape="169.60,175.20 172.05,174.85 173.80,173.80 174.85,172.05 175.20,169.60"/>
    </edge>
    <edge id=":A0_16" function="internal">
        <lane id=":A0_16_0" index="0" speed="16.67" length="20.80" shape="169.60,175.20 190.40,175.20"/>
        <lane id=":A0_16_1" index="1" speed="16.67" length="20.80" shape="169.60,178.40 190.40,178.40"/>
    </edge>
    <edge id=":A0_18" function="internal">
        <lane id=":A0_18_0" index="0" speed="9.26" length="5.01" shape="169.60,178.40 174.56,179.11"/>
    </edge>
    <edge id=":A0_19" function="internal">
        <lane id=":A0_19_0" index="0" speed="3.65" length="1.44" shape="169.60,178.40 170.80,179.20"/>
    </edge>
    <edge id=":A0_26" function="internal">
        <lane id=":A0_26_0" index="0" speed="9.26" length="14.34" shape="174.56,179.11 174.85,179.15 178.60,181.40 180.85,185.15 181.60,190.40"/>
    </edge>
    <edge id=":A0_27" function="internal">
        <lane id=":A0_27_0" index="0" speed="3.65" length="3.23" shape="170.80,179.20 171.20,180.00 170.80,180.80 169.60,181.60"/>
    </edge>
    <edge id=":A1_0" function="internal">
        <lane id=":A1_0_0" index="0" speed="6.51" length="9.03" shape="175.20,290.40 174.85,287.95 173.80,286.20 172.05,285.15 169.60,284.80"/>
    </edge>
    <edge id=":A1_1" function="internal">
        <lane id=":A1_1_0" index="0" speed="16.67" length="20.80" shape="175.20,290.40 175.20,269.60"/>
        <lane id=":A1_1_1" index="1" speed="16.67" length="20.80" shape="178.40,290.40 178.40,269.60"/>
    </edge>
    <edge id=":A1_3" function="internal">
        <lane id=":A1_3_0" index="0" speed="9.26" length="5.01" shape="178.40,290.40 179.11,285.44"/>
    </edge>
    <edge id=":A1_4" function="internal">
        <lane id=":A1_4_0" index="0" speed="3.65" length="1.44" shape="178.40,290.40 179.20,289.20"/>
    </edge>
    <edge id=":A1_20" function="internal">
        <lane id=":A1_20_0" index="0" speed="9.26" length="14.34" shape="179.11,285.44 179.15,285.15 181.40,281.40 185.15,279.15 190.40,278.40"/>
    </edge>
    <edge id=":A1_21" function="internal">
        <lane id=":A1_21_0" index="0" speed="3.65" length="3.23" shape="179.20,289.20 180.00,288.80 180.80,289.20 181.60,290.40"/>
    </edge>
    <edge id=":A1_5" function="internal">
        <lane id=":A1_5_0" index="0" speed="6.51" length="9.03" shape="190.40,284.80 187.95,285.15 186.20,286.20 185.15,287.95 184.80,290.40"/>
    </edge>
    <edge id=":A1_6" function="internal">
        <lane id=":A1_6_0" index="0" speed="16.67" length="20.80" shape="190.40,284.80 169.60,284.80"/>
        <lane id=":A1_6_1" index="1" speed="16.67" length="20.80" shape="190.40,281.60 169.60,281.60"/>
    </edge>
    <edge id=":A1_8" function="internal">
        <lane id=":A1_8_0" index="0" speed="9.26" length="5.01" shape="190.40,281.60 185.44,280.89"/>
    </edge>
    <edge id=":A1_9" function="internal">
        <lane id=":A1_9_0" index="0" speed="3.65" length="1.44" shape="190.40,281.60 189.20,280.80"/>
    </edge>
    <edge id=":A1_22" function="internal">
        <lane id=":A1_22_0" index="0" speed="9.26" length="14.34" shape="185.44,280.89 185.15,280.85 181.40,278.60 179.15,274.85 178.40,269.60"/>
    </edge>
    <edge id=":A1_23" function="internal">
        <lane id=":A1_23_0" index="0" speed="3.65" length="3.23" shape="189.20,280.80 188.80,280.00 189.20,279.20 190.40,278.40"/>
    </edge>
    <edge id=":A1_10" function="internal">
        <lane id=":A1_10_0" index="0" speed="6.51" length="9.03" shape="184.80,269.60 185.15,272.05 186.20,273.80 187.95,274.85 190.40,275.20"/>
    </edge>
    <edge id=":A1_11" function="internal">
        <lane id=":A1_11_0" index="0" speed="16.67" length="20.80" shape="184.80,269.60 184.80,290.40"/>
        <lane id=":A1_11_1" index="1" speed="16.67" length="20.80" shape="181.60,269.60 181.60,290.40"/>
    </edge>
    <edge id=":A1_13" function="internal">
        <lane id=":A1_13_0" index="0" speed="9.26" length="5.01" shape="181.60,269.60 180.89,274.56"/>
    </edge>
    <edge id=":A1_14" function="internal">
        <lane id=":A1_14_0" index="0" speed="3.65" length="1.44" shape="181.60,269.60 180.80,270.80"/>
    </edge>
    <edge id=":A1_24" function="internal">
        <lane id=":A1_24_0" index="0" speed="9.26" length="14.34" shape="180.89,274.56 180.85,274.85 178.60,278.60 174.85,280.85 169.60,281.60"/>
    </edge>
    <edge id=":A1_25" function="internal">
        <lane id=":A1_25_0" index="0" speed="3.65" length="3.23" shape="180.80,270.80 180.00,271.20 179.20,270.80 178.40,269.60"/>
    </edge>
    <edge id=":A1_15" function="internal">
        <lane id=":A1_15_0" index="0" speed="6.51" length="9.03" shape="169.60,275.20 172.05,274.85 173.80,273.80 174.85,272.05 175.20,269.60"/>
    </edge>
    <edge id=":A1_16" function="internal">
        <lane id=":A1_16_0" index="0" speed="16.67" length="20.80" shape="169.60,275.20 190.40,275.20"/>
        <lane id=":A1_16_1" index="1" speed="16.67" length="20.80" shape="169.60,278.40 190.40,278.40"/>
    </edge>
    <edge id=":A1_18" function="internal">
        <lane id=":A1_18_0" index="0" speed="9.26" length="5.01" shape="169.60,278.40 174.56,279.11"/>
    </edge>
    <edge id=":A1_19" function="internal">
        <lane id=":A1_19_0" index="0" speed="3.65" length="1.44" shape="169.60,278.40 170.80,279.20"/>
    </edge>
    <edge id=":A1_26" function="internal">
        <lane id=":A1_26_0" index="0" speed="9.26" length="14.34" shape="174.56,279.11 174.85,279.15 178.60,281.40 180.85,285.15 181.60,290.40"/>
    </edge>
    <edge id=":A1_27" function="internal">
        <lane id=":A1_27_0" index="0" speed="3.65" length="3.23" shape="170.80,279.20 171.20,280.00 170.80,280.80 169.60,281.60"/>
    </edge>
    <edge id=":A2_0" function="internal">
        <lane id=":A2_0_0" index="0" speed="6.51" length="9.03" shape="175.20,390.40 174.85,387.95 173.80,386.20 172.05,385.15 169.60,384.80"/>
    </edge>
    <edge id=":A2_1" function="internal">
        <lane id=":A2_1_0" index="0" speed="16.67" length="20.80" shape="175.20,390.40 175.20,369.60"/>
        <lane id=":A2_1_1" index="1" speed="16.67" length="20.80" shape="178.40,390.40 178.40,369.60"/>
    </edge>
    <edge id=":A2_3" function="internal">
        <lane id=":A2_3_0" index="0" speed="9.26" length="5.01" shape="178.40,390.40 179.11,385.44"/>
    </edge>
    <edge id=":A2_4" function="internal">
        <lane id=":A2_4_0" index="0" speed="3.65" length="1.44" shape="178.40,390.40 179.20,389.20"/>
    </edge>
    <edge id=":A2_20" function="internal">
        <lane id=":A2_20_0" index="0" speed="9.26" length="14.34" shape="179.11,385.44 179.15,385.15 181.40,381.40 185.15,379.15 190.40,378.40"/>
    </edge>
    <edge id=":A2_21" function="internal">
        <lane id=":A2_21_0" index="0" speed="3.65" length="3.23" shape="179.20,389.20 180.00,388.80 180.80,389.20 181.60,390.40"/>
    </edge>
    <edge id=":A2_5" function="internal">
        <lane id=":A2_5_0" index="0" speed="6.51" length="9.03" shape="190.40,384.80 187.95,385.15 186.20,386.20 185.15,387.95 184.80,390.40"/>
    </edge>
    <edge id=":A2_6" function="internal">
        <lane id=":A2_6_0" index="0" speed="16.67" length="20.80" shape="190.40,384.80 169.60,384.80"/>
        <lane id=":A2_6_1" index="1" speed="16.67" length="20.80" shape="190.40,381.60 169.60,381.60"/>
    </edge>
    <edge id=":A2_8" function="internal">
        <lane id=":A2_8_0" index="0" speed="9.26" length="5.01" shape="190.40,381.60 185.44,380.89"/>
    </edge>
    <edge id=":A2_9" function="internal">
        <lane id=":A2_9_0" index="0" speed="3.65" length="1.44" shape="190.40,381.60 189.20,380.80"/>
    </edge>
    <edge id=":A2_22" function="internal">
        <lane id=":A2_22_0" index="0" speed="9.26" length="14.34" shape="185.44,380.89 185.15,380.85 181.40,378.60 179.15,374.85 178.40,369.60"/>
    </edge>
    <edge id=":A2_23" function="internal">
        <lane id=":A2_23_0" index="0" speed="3.65" length="3.23" shape="189.20,380.80 188.80,380.00 189.20,379.20 190.40,378.40"/>
    </edge>
    <edge id=":A2_10" function="internal">
        <lane id=":A2_10_0" index="0" speed="6.51" length="9.03" shape="184.80,369.60 185.15,372.05 186.20,373.80 187.95,374.85 190.40,375.20"/>
    </edge>
    <edge id=":A2_11" function="internal">
        <lane id=":A2_11_0" index="0" speed="16.67" length="20.80" shape="184.80,369.60 184.80,390.40"/>
        <lane id=":A2_11_1" index="1" speed="16.67" length="20.80" shape="181.60,369.60 181.60,390.40"/>
    </edge>
    <edge id=":A2_13" function="internal">
        <lane id=":A2_13_0" index="0" speed="9.26" length="5.01" shape="181.60,369.60 180.89,374.56"/>
    </edge>
    <edge id=":A2_14" function="internal">
        <lane id=":A2_14_0" index="0" speed="3.65" length="1.44" shape="181.60,369.60 180.80,370.80"/>
    </edge>
    <edge id=":A2_24" function="internal">
        <lane id=":A2_24_0" index="0" speed="9.26" length="14.34" shape="180.89,374.56 180.85,374.85 178.60,378.60 174.85,380.85 169.60,381.60"/>
    </edge>
    <edge id=":A2_25" function="internal">
        <lane id=":A2_25_0" index="0" speed="3.65" length="3.23" shape="180.80,370.80 180.00,371.20 179.20,370.80 178.40,369.60"/>
    </edge>
    <edge id=":A2_15" function="internal">
        <lane id=":A2_15_0" index="0" speed="6.51" length="9.03" shape="169.60,375.20 172.05,374.85 173.80,373.80 174.85,372.05 175.20,369.60"/>
    </edge>
    <edge id=":A2_16" function="internal">
        <lane id=":A2_16_0" index="0" speed="16.67" length="20.80" shape="169.60,375.20 190.40,375.20"/>
        <lane id=":A2_16_1" index="1" speed="16.67" length="20.80" shape="169.60,378.40 190.40,378.40"/>
    </edge>
    <edge id=":A2_18" function="internal">
        <lane id=":A2_18_0" index="0" speed="9.26" length="5.01" shape="169.60,378.40 174.56,379.11"/>
    </edge>
    <edge id=":A2_19" function="internal">
        <lane id=":A2_19_0" index="0" speed="3.65" length="1.44" shape="169.60,378.40 170.80,379.20"/>
    </edge>
    <edge id=":A2_26" function="internal">
        <lane id=":A2_26_0" index="0" speed="9.26" length="14.34" shape="174.56,379.11 174.85,379.15 178.60,381.40 180.85,385.15 181.60,390.40"/>
    </edge>
    <edge id=":A2_27" function="internal">
        <lane id=":A2_27_0" index="0" speed="3.65" length="3.23" shape="170.80,379.20 171.20,380.00 170.80,380.80 169.60,381.60"/>
    </edge>
    <edge id=":A3_0" function="internal">
        <lane id=":A3_0_0" index="0" speed="6.51" length="9.03" shape="175.20,490.40 174.85,487.95 173.80,486.20 172.05,485.15 169.60,484.80"/>
    </edge>
    <edge id=":A3_1" function="internal">
        <lane id=":A3_1_0" index="0" speed="16.67" length="20.80" shape="175.20,490.40 175.20,469.60"/>
        <lane id=":A3_1_1" index="1" speed="16.67" length="20.80" shape="178.40,490.40 178.40,469.60"/>
    </edge>
    <edge id=":A3_3" function="internal">
        <lane id=":A3_3_0" index="0" speed="9.26" length="5.01" shape="178.40,490.40 179.11,485.44"/>
    </edge>
    <edge id=":A3_4" function="internal">
        <lane id=":A3_4_0" index="0" speed="3.65" length="1.44" shape="178.40,490.40 179.20,489.20"/>
    </edge>
    <edge id=":A3_20" function="internal">
        <lane id=":A3_20_0" index="0" speed="9.26" length="14.34" shape="179.11,485.44 179.15,485.15 181.40,481.40 185.15,479.15 190.40,478.40"/>
    </edge>
    <edge id=":A3_21" function="internal">
        <lane id=":A3_21_0" index="0" speed="3.65" length="3.23" shape="179.20,489.20 180.00,488.80 180.80,489.20 181.60,490.40"/>
    </edge>
    <edge id=":A3_5" function="internal">
        <lane id=":A3_5_0" index="0" speed="6.51" length="9.03" shape="190.40,484.80 187.95,485.15 186.20,486.20 185.15,487.95 184.80,490.40"/>
    </edge>
    <edge id=":A3_6" function="internal">
        <lane id=":A3_6_0" index="0" speed="16.67" length="20.80" shape="190.40,484.80 169.60,484.80"/>
        <lane id=":A3_6_1" index="1" speed="16.67" length="20.80" shape="190.40,481.60 169.60,481.60"/>
    </edge>
    <edge id=":A3_8" function="internal">
        <lane id=":A3_8_0" index="0" speed="9.26" length="5.01" shape="190.40,481.60 185.44,480.89"/>
    </edge>
    <edge id=":A3_9" function="internal">
        <lane id=":A3_9_0" index="0" speed="3.65" length="1.44" shape="190.40,481.60 189.20,480.80"/>
    </edge>
    <edge id=":A3_22" function="internal">
        <lane id=":A3_22_0" index="0" speed="9.26" length="14.34" shape="185.44,480.89 185.15,480.85 181.40,478.60 179.15,474.85 178.40,469.60"/>
    </edge>
    <edge id=":A3_23" function="internal">
        <lane id=":A3_23_0" index="0" speed="3.65" length="3.23" shape="189.20,480.80 188.80,480.00 189.20,479.20 190.40,478.40"/>
    </edge>
    <edge id=":A3_10" function="internal">
        <lane id=":A3_10_0" index="0" speed="6.51" length="9.03" shape="184.80,469.60 185.15,472.05 186.20,473.80 187.95,474.85 190.40,475.20"/>
    </edge>
    <edge id=":A3_11" function="internal">
        <lane id=":A3_11_0" index="0" speed="16.67" length="20.80" shape="184.80,469.60 184.80,490.40"/>
        <lane id=":A3_11_1" index="1" speed="16.67" length="20.80" shape="181.60,469.60 181.60,490.40"/>
    </edge>
    <edge id=":A3_13" function="internal">
        <lane id=":A3_13_0" index="0" speed="9.26" length="5.01" shape="181.60,469.60 180.89,474.56"/>
    </edge>
    <edge id=":A3_14" function="internal">
        <lane id=":A3_14_0" index="0" speed="3.65" length="1.44" shape="181.60,469.60 180.80,470.80"/>
    </edge>
    <edge id=":A3_24" function="internal">
        <lane id=":A3_24_0" index="0" speed="9.26" length="14.34" shape="180.89,474.56 180.85,474.85 178.60,478.60 174.85,480.85 169.60,481.60"/>
    </edge>
    <edge id=":A3_25" function="internal">
        <lane id=":A3_25_0" index="0" speed="3.65" length="3.23" shape="180.80,470.80 180.00,471.20 179.20,470.80 178.40,469.60"/>
    </edge>
    <edge id=":A3_15" function="internal">
        <lane id=":A3_15_0" index="0" speed="6.51" length="9.03" shape="169.60,475.20 172.05,474.85 173.80,473.80 174.85,472.05 175.20,469.60"/>
    </edge>
    <edge id=":A3_16" function="internal">
        <lane id=":A3_16_0" index="0" speed="16.67" length="20.80" shape="169.60,475.20 190.40,475.20"/>
        <lane id=":A3_16_1" index="1" speed="16.67" length="20.80" shape="169.60,478.40 190.40,478.40"/>
    </edge>
    <edge id=":A3_18" function="internal">
        <lane id=":A3_18_0" index="0" speed="9.26" length="5.01" shape="169.60,478.40 174.56,479.11"/>
    </edge>
    <edge id=":A3_19" function="internal">
        <lane id=":A3_19_0" index="0" speed="3.65" length="1.44" shape="169.60,478.40 170.80,479.20"/>
    </edge>
    <edge id=":A3_26" function="internal">
        <lane id=":A3_26_0" index="0" speed="9.26" length="14.34" shape="174.56,479.11 174.85,479.15 178.60,481.40 180.85,485.15 181.60,490.40"/>
    </edge>
    <edge id=":A3_27" function="internal">
        <lane id=":A3_27_0" index="0" speed="3.65" length="3.23" shape="170.80,479.20 171.20,480.00 170.80,480.80 169.60,481.60"/>
    </edge>
    <edge id=":A4_0" function="internal">
        <lane id=":A4_0_0" index="0" speed="6.51" length="9.03" shape="175.20,590.40 174.85,587.95 173.80,586.20 172.05,585.15 169.60,584.80"/>
    </edge>
    <edge id=":A4_1" function="internal">
        <lane id=":A4_1_0" index="0" speed="16.67" length="20.80" shape="175.20,590.40 175.20,569.60"/>
        <lane id=":A4_1_1" index="1" speed="16.67" length="20.80" shape="178.40,590.40 178.40,569.60"/>
    </edge>
    <edge id=":A4_3" function="internal">
        <lane id=":A4_3_0" index="0" speed="9.26" length="5.01" shape="178.40,590.40 179.11,585.44"/>
    </edge>
    <edge id=":A4_4" function="internal">
        <lane id=":A4_4_0" index="0" speed="3.65" length="1.44" shape="178.40,590.40 179.20,589.20"/>
    </edge>
    <edge id=":A4_20" function="internal">
        <lane id=":A4_20_0" index="0" speed="9.26" length="14.34" shape="179.11,585.44 179.15,585.15 181.40,581.40 185.15,579.15 190.40,578.40"/>
    </edge>
    <edge id=":A4_21" function="internal">
        <lane id=":A4_21_0" index="0" speed="3.65" length="3.23" shape="179.20,589.20 180.00,588.80 180.80,589.20 181.60,590.40"/>
    </edge>
    <edge id=":A4_5" function="internal">
        <lane id=":A4_5_0" index="0" speed="6.51" length="9.03" shape="190.40,584.80 187.95,585.15 186.20,586.20 185.15,587.95 184.80,590.40"/>
    </edge>
    <edge id=":A4_6" function="internal">
        <lane id=":A4_6_0" index="0" speed="16.67" length="20.80" shape="190.40,584.80 169.60,584.80"/>
        <lane id=":A4_6_1" index="1" speed="16.67" length="20.80" shape="190.40,581.60 169.60,581.60"/>
    </edge>
    <edge id=":A4_8" function="internal">
        <lane id=":A4_8_0" index="0" speed="9.26" length="5.01" shape="190.40,581.60 185.44,580.89"/>
    </edge>
    <edge id=":A4_9" function="internal">
        <lane id=":A4_9_0" index="0" speed="3.65" length="1.44" shape="190.40,581.60 189.20,580.80"/>
    </edge>
    <edge id=":A4_22" function="internal">
        <lane id=":A4_22_0" index="0" speed="9.26" length="14.34" shape="185.44,580.89 185.15,580.85 181.40,578.60 179.15,574.85 178.40,569.60"/>
    </edge>
    <edge id=":A4_23" function="internal">
        <lane id=":A4_23_0" index="0" speed="3.65" length="3.23" shape="189.20,580.80 188.80,580.00 189.20,579.20 190.40,578.40"/>
    </edge>
    <edge id=":A4_10" function="internal">
        <lane id=":A4_10_0" index="0" speed="6.51" length="9.03" shape="184.80,569.60 185.15,572.05 186.20,573.80 187.95,574.85 190.40,575.20"/>
    </edge>
    <edge id=":A4_11" function="internal">
        <lane id=":A4_11_0" index="0" speed="16.67" length="20.80" shape="184.80,569.60 184.80,590.40"/>
        <lane id=":A4_11_1" index="1" speed="16.67" length="20.80" shape="181.60,569.60 181.60,590.40"/>
    </edge>
    <edge id=":A4_13" function="internal">
        <lane id=":A4_13_0" index="0" speed="9.26" length="5.01" shape="181.60,569.60 180.89,574.56"/>
    </edge>
    <edge id=":A4_14" function="internal">
        <lane id=":A4_14_0" index="0" speed="3.65" length="1.44" shape="181.60,569.60 180.80,570.80"/>
    </edge>
    <edge id=":A4_24" function="internal">
        <lane id=":A4_24_0" index="0" speed="9.26" length="14.34" shape="180.89,574.56 180.85,574.85 178.60,578.60 174.85,580.85 169.60,581.60"/>
    </edge>
    <edge id=":A4_25" function="internal">
        <lane id=":A4_25_0" index="0" speed="3.65" length="3.23" shape="180.80,570.80 180.00,571.20 179.20,570.80 178.40,569.60"/>
    </edge>
    <edge id=":A4_15" function="internal">
        <lane id=":A4_15_0" index="0" speed="6.51" length="9.03" shape="169.60,575.20 172.05,574.85 173.80,573.80 174.85,572.05 175.20,569.60"/>
    </edge>
    <edge id=":A4_16" function="internal">
        <lane id=":A4_16_0" index="0" speed="16.67" length="20.80" shape="169.60,575.20 190.40,575.20"/>
        <lane id=":A4_16_1" index="1" speed="16.67" length="20.80" shape="169.60,578.40 190.40,578.40"/>
    </edge>
    <edge id=":A4_18" function="internal">
        <lane id=":A4_18_0" index="0" speed="9.26" length="5.01" shape="169.60,578.40 174.56,579.11"/>
    </edge>
    <edge id=":A4_19" function="internal">
        <lane id=":A4_19_0" index="0" speed="3.65" length="1.44" shape="169.60,578.40 170.80,579.20"/>
    </edge>
    <edge id=":A4_26" function="internal">
        <lane id=":A4_26_0" index="0" speed="9.26" length="14.34" shape="174.56,579.11 174.85,579.15 178.60,581.40 180.85,585.15 181.60,590.40"/>
    </edge>
    <edge id=":A4_27" function="internal">
        <lane id=":A4_27_0" index="0" speed="3.65" length="3.23" shape="170.80,579.20 171.20,580.00 170.80,580.80 169.60,581.60"/>
    </edge>
    <edge id=":A5_0" function="internal">
        <lane id=":A5_0_0" index="0" speed="6.51" length="9.03" shape="175.20,690.40 174.85,687.95 173.80,686.20 172.05,685.15 169.60,684.80"/>
    </edge>
    <edge id=":A5_1" function="internal">
        <lane id=":A5_1_0" index="0" speed="16.67" length="20.80" shape="175.20,690.40 175.20,669.60"/>
        <lane id=":A5_1_1" index="1" speed="16.67" length="20.80" shape="178.40,690.40 178.40,669.60"/>
    </edge>
    <edge id=":A5_3" function="internal">
        <lane id=":A5_3_0" index="0" speed="9.26" length="5.01" shape="178.40,690.40 179.11,685.44"/>
    </edge>
    <edge id=":A5_4" function="internal">
        <lane id=":A5_4_0" index="0" speed="3.65" length="1.44" shape="178.40,690.40 179.20,689.20"/>
    </edge>
    <edge id=":A5_20" function="internal">
        <lane id=":A5_20_0" index="0" speed="9.26" length="14.34" shape="179.11,685.44 179.15,685.15 181.40,681.40 185.15,679.15 190.40,678.40"/>
    </edge>
    <edge id=":A5_21" function="internal">
        <lane id=":A5_21_0" index="0" speed="3.65" length="3.23" shape="179.20,689.20 180.00,688.80 180.80,689.20 181.60,690.40"/>
    </edge>
    <edge id=":A5_5" function="internal">
        <lane id=":A5_5_0" index="0" speed="6.51" length="9.03" shape="190.40,684.80 187.95,685.15 186.20,686.20 185.15,687.95 184.80,690.40"/>
    </edge>
    <edge id=":A5_6" function="internal">
        <lane id=":A5_6_0" index="0" speed="16.67" length="20.80" shape="190.40,684.80 169.60,684.80"/>
        <lane id=":A5_6_1" index="1" speed="16.67" length="20.80" shape="190.40,681.60 169.60,681.60"/>
    </edge>
    <edge id=":A5_8" function="internal">
        <lane id=":A5_8_0" index="0" speed="9.26" length="5.01" shape="190.40,681.60 185.44,680.89"/>
    </edge>
    <edge id=":A5_9" function="internal">
        <lane id=":A5_9_0" index="0" speed="3.65" length="1.44" shape="190.40,681.60 189.20,680.80"/>
    </edge>
    <edge id=":A5_22" function="internal">
        <lane id=":A5_22_0" index="0" speed="9.26" length="14.34" shape="185.44,680.89 185.15,680.85 181.40,678.60 179.15,674.85 178.40,669.60"/>
    </edge>
    <edge id=":A5_23" function="internal">
        <lane id=":A5_23_0" index="0" speed="3.65" length="3.23" shape="189.20,680.80 188.80,680.00 189.20,679.20 190.40,678.40"/>
    </edge>
    <edge id=":A5_10" function="internal">
        <lane id=":A5_10_0" index="0" speed="6.51" length="9.03" shape="184.80,669.60 185.15,672.05 186.20,673.80 187.95,674.85 190.40,675.20"/>
    </edge>
    <edge id=":A5_11" function="internal">
        <lane id=":A5_11_0" index="0" speed="16.67" length="20.80" shape="184.80,669.60 184.80,690.40"/>
        <lane id=":A5_11_1" index="1" speed="16.67" length="20.80" shape="181.60,669.60 181.60,690.40"/>
    </edge>
    <edge id=":A5_13" function="internal">
        <lane id=":A5_13_0" index="0" speed="9.26" length="5.01" shape="181.60,669.60 180.89,674.56"/>
    </edge>
    <edge id=":A5_14" function="internal">
        <lane id=":A5_14_0" index="0" speed="3.65" length="1.44" shape="181.60,669.60 180.80,670.80"/>
    </edge>
    <edge id=":A5_24" function="internal">
        <lane id=":A5_24_0" index="0" speed="9.26" length="14.34" shape="180.89,674.56 180.85,674.85 178.60,678.60 174.85,680.85 169.60,681.60"/>
    </edge>
    <edge id=":A5_25" function="internal">
        <lane id=":A5_25_0" index="0" speed="3.65" length="3.23" shape="180.80,670.80 180.00,671.20 179.20,670.80 178.40,669.60"/>
    </edge>
    <edge id=":A5_15" function="internal">
        <lane id=":A5_15_0" index="0" speed="6.51" length="9.03" shape="169.60,675.20 172.05,674.85 173.80,673.80 174.85,672.05 175.20,669.60"/>
    </edge>
    <edge id=":A5_16" function="internal">
        <lane id=":A5_16_0" index="0" speed="16.67" length="20.80" shape="169.60,675.20 190.40,675.20"/>
        <lane id=":A5_16_1" index="1" speed="16.67" length="20.80" shape="169.60,678.40 190.40,678.40"/>
    </edge>
    <edge id=":A5_18" function="internal">
        <lane id=":A5_18_0" index="0" speed="9.26" length="5.01" shape="169.60,678.40 174.56,679.11"/>
    </edge>
    <edge id=":A5_19" function="internal">
        <lane id=":A5_19_0" index="0" speed="3.65" length="1.44" shape="169.60,678.40 170.80,679.20"/>
    </edge>
    <edge id=":A5_26" function="internal">
        <lane id=":A5_26_0" index="0" speed="9.26" length="14.34" shape="174.56,679.11 174.85,679.15 178.60,681.40 180.85,685.15 181.60,690.40"/>
    </edge>
    <edge id=":A5_27" function="internal">
        <lane id=":A5_27_0" index="0" speed="3.65" length="3.23" shape="170.80,679.20 171.20,680.00 170.80,680.80 169.60,681.60"/>
    </edge>
    <edge id=":B0_0" function="internal">
        <lane id=":B0_0_0" index="0" speed="6.51" length="9.03" shape="295.20,190.40 294.85,187.95 293.80,186.20 292.05,185.15 289.60,184.80"/>
    </edge>
    <edge id=":B0_1" function="internal">
        <lane id=":B0_1_0" index="0" speed="16.67" length="20.80" shape="295.20,190.40 295.20,169.60"/>
        <lane id=":B0_1_1" index="1" speed="16.67" length="20.80" shape="298.40,190.40 298.40,169.60"/>
    </edge>
    <edge id=":B0_3" function="internal">
        <lane id=":B0_3_0" index="0" speed="9.26" length="5.01" shape="298.40,190.40 299.11,185.44"/>
    </edge>
    <edge id=":B0_4" function="internal">
        <lane id=":B0_4_0" index="0" speed="3.65" length="1.44" shape="298.40,190.40 299.20,189.20"/>
    </edge>
    <edge id=":B0_20" function="internal">