<?xml version="1.0" encoding="UTF-8"?>

<!-- generated on 2026-04-02 23:51:19 by Eclipse SUMO polyconvert Version 1.18.0
<configuration xmlns:xsi="http://www.w3.org/2001/XMLSchema-instance" xsi:noNamespaceSchemaLocation="http://sumo.dlr.de/xsd/polyconvertConfiguration.xsd">

    <input>
        <net-file value="kolkata.net.xml"/>
        <osm-files value="/home/vivek/Downloads/kolkata_map.osm"/>
        <osm.keep-full-type value="true"/>
        <type-file value="/usr/share/sumo/data/typemap/osmPolyconvert.typ.xml"/>
    </input>

    <output>
        <output-file value="kolkata.poly.xml"/>
    </output>

    <report>
        <verbose value="true"/>
    </report>

</configuration>
-->

<additional xmlns:xsi="http://www.w3.org/2001/XMLSchema-instance" xsi:noNamespaceSchemaLocation="http://sumo.dlr.de/xsd/additional_file.xsd">
    <location netOffset="-638350.65,-2488399.93" convBoundary="-11674.03,0.00,6463.06,46780.08" origBoundary="88.232004,22.496448,88.411821,22.918503" projParameter="+proj=utm +zone=45 +ellps=WGS84 +datum=WGS84 +units=m +no_defs"/>

    <poly id="101943115" type="landuse.residential" color="235,235,227" fill="1" layer="-3.00" shape="1554.663877,10482.520682 1506.228672,10350.470485 1382.189353,10385.446877 1319.128044,10193.970698 1311.773659,10166.067363 1302.629409,10123.576284 1287.153608,10043.591339 1276.644384,9979.352494 1601.193928,9976.221634 1718.261965,9961.933052 1825.081113,10405.102671 1554.663877,10482.520682"/>
    <poly id="101943165" type="landuse.residential" color="235,235,227" fill="1" layer="-3.00" shape="1153.609650,9217.584076 1132.746290,9211.946650 1120.844683,9177.413994 1031.313621,8993.084476 1009.126636,8932.770286 969.159643,8880.488298 1427.639470,8748.090792 1451.637062,8836.380264 1515.872197,9116.203735 1231.054463,9193.065502 1153.609650,9217.584076"/>
    <poly id="101943167" type="landuse.residential" color="235,235,227" fill="1" layer="-3.00" shape="1277.786519,9972.486857 1257.189029,9771.764854 1229.829768,9620.231965 1451.003012,9579.407134 1536.039369,9565.677591 1628.245389,9552.777958 1711.849554,9951.410919 1573.715419,9960.989694 1277.786519,9972.486857"/>
    <poly id="101943173" type="landuse.residential" color="235,235,227" fill="1" layer="-3.00" shape="1851.093294,10409.669924 2009.234474,10366.140350 2246.119644,10292.940132 2354.563687,10271.502046 2452.316868,10569.997356 2556.016394,10886.651988 2191.030563,10949.935460 1981.155007,11011.845622 1851.093294,10409.669924"/>
    <poly id="101943177" type="landuse.residential" color="235,235,227" fill="1" layer="-3.00" shape="1430.032441,9577.699033 1425.970953,9541.598798 1388.414171,9546.748495 1380.972649,9515.965509 1251.669815,9541.107258 1242.293402,9459.661055 1404.395118,9439.313490 1410.074088,9457.025917 1453.305538,9447.521125 1454.195723,9470.560092 1497.283499,9463.279692 1504.093021,9532.899410 1535.543044,9525.402272 1536.451596,9562.193504 1626.131835,9548.894351 1526.091996,9119.707269 1273.638359,9188.116150 1251.533956,9192.299656 1141.993091,9228.595218 1192.088552,9463.754953 1225.921518,9615.822747 1430.032441,9577.699033"/>
    <poly id="101972885" type="landuse.residential" color="235,235,227" fill="1" layer="-3.00" shape="1085.696184,7912.792421 1210.913225,7974.264677 1281.747981,8195.428945 1541.651179,8106.857696 1497.667765,8004.379324 1477.094997,7815.438839 1406.749890,7598.164607 1340.369934,7664.748229 1273.432173,7732.799675 1217.941652,7790.547336 1158.865491,7844.586513 1085.696184,7912.792421"/>
    <poly id="101972894" type="landuse.residential" color="235,235,227" fill="1" layer="-3.00" shape="1547.589546,8109.702107 1501.871082,8004.661225 1482.308167,7817.756201 1414.638882,7596.874526 1506.576586,7557.131274 1598.748304,7531.253456 1727.673934,7470.478817 1722.894656,7458.919790 1787.002154,7434.270686 1850.440424,7556.094060 1868.272253,7631.516869 1884.673304,7690.184990 1899.208509,7745.957234 1905.175727,7765.909090 1967.389551,7960.645619 1547.589546,8109.702107"/>
    <poly id="101972904" type="landuse.residential" color="235,235,227" fill="1" layer="-3.00" shape="1341.692842,8407.326535 1313.206381,8320.602012 1279.896109,8206.827842 1540.630871,8118.385951 1607.821151,8266.141297 1452.440460,8361.166356 1341.692842,8407.326535"/>
    <poly id="101994100" type="landuse.residential" color="235,235,227" fill="1" layer="-3.00" shape="1675.852052,11114.076222 1662.688324,11079.597806 1656.051158,11062.219691 1651.633157,11050.641728 1649.906086,11046.119420 1640.668346,11021.919010 1507.791441,10673.891523 1451.757177,10534.087782 1519.992216,10509.763831 1529.110861,10506.514204 1530.596249,10505.985204 1541.159062,10502.217281 1542.407184,10501.774697 1550.411772,10498.924600 1628.776797,10470.984268 1744.392029,10439.752912 1752.266745,10437.621445 1821.190848,10419.007443 1896.893311,10758.586615 1954.707119,11017.925900 1799.822722,11066.955271 1763.650726,11080.708806 1708.072415,11101.825459 1675.852052,11114.076222"/>
    <poly id="101994132" type="landuse.residential" color="235,235,227" fill="1" layer="-3.00" shape="1108.970441,10625.292081 1158.637779,10743.090707 1168.030286,10802.347798 1162.821199,10890.050180 1407.433201,10919.694459 1611.878844,10992.845272 1435.175406,10538.321282 1108.970441,10625.292081"/>
    <poly id="101999501" type="landuse.residential" color="235,235,227" fill="1" layer="-3.00" shape="732.836945,10717.430212 780.910509,11014.454860 804.641123,11055.062860 851.016982,11110.846634 928.668939,11181.220506 1015.253630,11248.298940 1097.280618,11322.422858 1663.671098,11119.445840 1621.945830,11010.686516 1609.325109,11001.159581 1480.641035,10950.767433 1413.997109,10932.742409 1398.684738,10928.605587 1389.638820,10926.164652 1199.991880,10902.092258 1161.984446,10896.132455 1157.887048,10895.596893 1151.598482,10892.937607 1157.846350,10806.318715 1147.833239,10746.336269 1096.682763,10624.294485 905.098786,10679.454379 732.836945,10717.430212"/>
    <poly id="102015127" type="leisure.park" color="207,245,201" fill="1" layer="-2.00" shape="1844.386226,10399.920098 1743.797234,9958.014146 2230.256002,9900.338545 2275.343440,10024.731550 2294.929672,10079.764724 2165.168015,10147.401961 2215.115821,10294.504938 1844.386226,10399.920098"/>
    <poly id="102015137" type="natural.water" color="181,209,209" fill="1" layer="-4.00" shape="2339.889284,10094.715519 2336.527153,10100.309533 2334.265428,10106.998758 2330.831576,10120.409352 2331.664706,10134.944213 2344.381588,10176.605209 2356.795051,10205.386031 2367.023349,10217.947632 2377.587048,10224.212023 2387.488234,10227.602543 2393.191155,10227.987075 2396.859551,10228.231133 2404.085809,10221.720366 2407.751960,10213.250287 2409.593540,10192.971161 2402.885558,10141.909284 2392.580293,10123.168458 2388.237696,10115.721040 2383.047182,10109.915654 2373.627706,10099.963527 2362.537918,10091.634818 2354.849517,10087.998886 2347.135914,10087.108726 2339.889284,10094.715519"/>
    <poly id="102015156" type="amenity.college" color="237,199,199" fill="1" layer="-2.00" shape="2218.951863,10291.041180 2202.372487,10234.396918 2172.227211,10153.501211 2292.487690,10091.534610 2352.620968,10270.321595 2238.839667,10287.381372 2218.951863,10291.041180"/>
    <poly id="102015159" type="leisure.park" color="207,245,201" fill="1" layer="-2.00" shape="2363.127487,10267.129473 2352.767824,10236.396571 2332.238518,10175.497242 2301.379276,10083.942887 2363.450259,10051.604764 2369.864926,10074.152037 2388.127979,10067.188936 2445.030541,10238.273385 2363.127487,10267.129473"/>
    <poly id="102018199" type="leisure.park" color="207,245,201" fill="1" layer="-2.00" shape="1442.415097,10525.764612 1393.979110,10393.714807 1504.597950,10360.166224 1552.517883,10487.838062 1442.415097,10525.764612"/>
    <poly id="102023552" type="landuse.residential" color="235,235,227" fill="1" layer="-3.00" shape="1646.634025,9546.723055 1546.486066,9123.812941 1705.772064,9069.948232 1741.125047,9046.166180 1808.051075,8998.191294 1881.145138,8958.311727 1927.956466,9066.896327 1972.676250,9175.860600 2068.396062,9445.478510 1962.134974,9483.990633 1833.890557,9513.533036 1646.634025,9546.723055"/>
    <poly id="102023570" type="landuse.residential" color="235,235,227" fill="1" layer="-3.00" shape="2213.835057,9893.655183 1733.301660,9945.373058 1645.828769,9553.835344 1957.526477,9487.580264 1976.438131,9480.578290 2007.356311,9467.197708 2069.448252,9448.477733 2139.745649,9654.240679 2213.835057,9893.655183"/>
    <poly id="102829185" type="leisure.park" color="207,245,201" fill="1" layer="-2.00" shape="1242.293402,9459.661055 1251.669815,9541.107258 1380.972649,9515.965509 1388.414171,9546.748495 1425.970953,9541.598798 1430.032441,9577.699033 1536.451596,9562.193504 1535.543044,9525.402272 1504.093021,9532.899410 1497.283499,9463.279692 1454.195723,9470.560092 1453.305538,9447.521125 1410.074088,9457.025917 1404.395118,9439.313490 1242.293402,9459.661055"/>
    <poly id="102953468" type="leisure.park" color="207,245,201" fill="1" layer="-2.00" shape="1718.905607,9234.052376 1754.103594,9414.047921 1842.620891,9385.237787 1832.959867,9356.626611 1847.147941,9354.563940 1810.652316,9207.519222 1718.905607,9234.052376"/>
    <poly id="103024889" type="leisure.park" color="207,245,201" fill="1" layer="-2.00" shape="1896.575735,10634.858914 1911.446384,10697.399940 1941.392563,10691.096907 1954.704341,10683.545470 1960.169295,10670.596306 1938.254675,10618.299308 1896.575735,10634.858914"/>
    <poly id="103230518" type="landuse.residential" color="235,235,227" fill="1" layer="-3.00" shape="1771.142144,8629.426687 1766.584857,8629.639731 1553.429702,8114.295082 1980.219387,7964.439015 2182.028950,8475.534130 1771.142144,8629.426687"/>
    <poly id="103230580" type="landuse.residential" color="235,235,227" fill="1" layer="-3.00" shape="1438.211698,8744.544268 1535.631775,9110.958396 1686.649006,9064.026987 1713.943150,9047.822419 1741.795165,9029.087382 1807.864083,8986.020870 1874.384247,8940.877109 1866.382754,8920.795891 1754.350421,8639.526489 1438.211698,8744.544268"/>
    <poly id="103230614" type="building.yes" color="255,230,230" fill="1" layer="-1.00" shape="1589.831056,8941.932429 1573.977644,8864.999857 1580.669186,8857.387638 1573.177621,8832.085022 1735.008967,8792.593656 1743.082289,8819.473977 1601.653837,8854.279463 1618.557279,8936.702552 1589.831056,8941.932429"/>
    <poly id="103477616" type="leisure.park" color="207,245,201" fill="1" layer="-2.00" shape="2210.588677,8907.215490 2223.821491,8907.336752 2218.312698,8876.737098 2205.348948,8877.548402 2210.588677,8907.215490"/>
    <poly id="103477619" type="landuse.residential" color="235,235,227" fill="1" layer="-3.00" shape="1820.847200,8764.766333 1883.696942,8934.506954 1974.389987,8864.892841 1985.451051,8855.128394 2023.349202,8812.890151 2033.824967,8805.290598 2064.811910,8772.190482 2102.141888,8711.190319 2133.961802,8659.031029 2154.414521,8624.229089 2202.363510,8540.096187 2179.801827,8479.555209 1916.242012,8581.358070 1966.890877,8713.451555 1820.847200,8764.766333"/>
    <poly id="103477672" type="landuse.residential" color="235,235,227" fill="1" layer="-3.00" shape="1965.929849,9150.121649 1889.279488,8948.110778 1940.428101,8910.754694 1983.875156,8879.019594 2082.017690,8760.677519 2214.159822,8556.746646 2248.290903,8666.511553 2247.437930,8677.675939 2256.955231,8781.402251 2276.191807,8888.251567 2350.411349,8886.186161 2408.744013,9027.553229 1965.929849,9150.121649"/>
    <poly id="103477674" type="amenity.hospital" color="237,199,199" fill="1" layer="-1.00" shape="2278.430190,8887.485937 2266.840396,8828.152599 2257.430854,8771.020556 2257.205316,8675.584166 2265.946851,8684.444821 2344.655146,8883.708474 2278.430190,8887.485937"/>
    <poly id="103477676" type="leisure.park" color="207,245,201" fill="1" layer="-2.00" shape="1823.320984,8762.995186 1777.120690,8639.103321 1912.488944,8589.207402 1958.698632,8713.099812 1823.320984,8762.995186"/>
    <poly id="103477687" type="natural.water" color="181,209,209" fill="1" layer="-4.00" shape="1833.253877,8748.403772 1800.424536,8654.563069 1897.104166,8619.737672 1931.436579,8714.456013 1833.253877,8748.403772"/>
    <poly id="103585512" type="landuse.residential" color="235,235,227" fill="1" layer="-3.00" shape="2171.201681,9725.769756 2086.588912,9470.945883 2074.301095,9433.928544 1973.715862,9158.884828 2413.238572,9037.526563 2614.897480,9549.370263 2486.333120,9583.399784 2354.127377,9636.707494 2234.340507,9694.835980 2171.201681,9725.769756"/>
    <poly id="103593786" type="landuse.residential" color="235,235,227" fill="1" layer="-3.00" shape="2236.920102,9901.318670 2173.412409,9726.886199 2315.487773,9661.233056 2347.048834,9650.627198 2476.712281,9598.702305 2617.106483,9554.029979 2720.616540,9868.358148 2592.232478,9866.247394 2477.690656,9869.468958 2236.920102,9901.318670"/>
    <poly id="103594692" type="landuse.residential" color="235,235,227" fill="1" layer="-3.00" shape="2162.042711,8395.374091 2111.420897,8282.834325 1981.459998,7968.215020 2194.332374,7900.173603 2417.247041,7823.900577 2499.400288,8008.956969 2400.461748,8210.986886 2287.410663,8401.394653 2251.736826,8383.628437 2235.910315,8359.024158 2162.042711,8395.374091"/>
    <poly id="103625262" type="landuse.residential" color="235,235,227" fill="1" layer="-3.00" shape="2293.593974,8423.485705 2350.397345,8334.949980 2398.631728,8244.575294 2516.459801,8041.511853 2637.944431,8293.664647 2293.593974,8423.485705"/>
    <poly id="1040195238" type="building.college" color="255,230,230" fill="1" layer="-1.00" shape="2222.549045,10205.981466 2223.880078,10209.957651 2210.751413,10214.299519 2206.778357,10202.426516 2243.637626,10190.241422 2245.408837,10195.550353 2248.263667,10193.694198 2251.065798,10202.068615 2246.280368,10203.663468 2247.080817,10206.073556 2242.831831,10207.474024 2240.360035,10200.077024 2222.549045,10205.981466"/>
    <poly id="1040195239" type="building.college" color="255,230,230" fill="1" layer="-1.00" shape="2269.885945,10175.822075 2264.768171,10159.841705 2268.439199,10158.679538 2266.750138,10153.382430 2285.620870,10147.410247 2286.840122,10151.241469 2291.387585,10149.810533 2295.635904,10149.605910 2297.215318,10154.525549 2293.874296,10155.580010 2295.423781,10160.399721 2298.682350,10159.366649 2300.062032,10163.642246 2297.772829,10164.363107 2298.542532,10166.761844 2269.885945,10175.822075"/>
    <poly id="1040195240" type="building.college" color="255,230,230" fill="1" layer="-1.00" shape="2234.004895,10237.178290 2231.748522,10230.956959 2234.729789,10229.888114 2226.968016,10208.469024 2238.676385,10204.280233 2248.694512,10231.920663 2234.004895,10237.178290"/>
    <poly id="1040195241" type="building.college" color="255,230,230" fill="1" layer="-1.00" shape="2315.098470,10236.017670 2318.357736,10234.907101 2308.343979,10205.683280 2305.590104,10206.621328 2302.445863,10197.435463 2311.852245,10194.244283 2327.513531,10239.973773 2317.601879,10243.326394 2315.098470,10236.017670"/>
    <poly id="1040195242" type="building.yes" color="255,230,230" fill="1" layer="-1.00" shape="2212.634250,10189.492083 2207.049789,10172.820957 2229.542930,10165.376051 2235.127472,10182.036114 2212.634250,10189.492083"/>
    <poly id="1040195243" type="building.yes" color="255,230,230" fill="1" layer="-1.00" shape="2237.347177,10169.832352 2229.753117,10148.060480 2248.009817,10141.772590 2255.593574,10163.544378 2237.347177,10169.832352"/>
    <poly id="1040195244" type="building.yes" color="255,230,230" fill="1" layer="-1.00" shape="2197.046480,10174.954834 2205.213363,10197.053045 2191.657589,10202.000004 2183.490689,10179.901802 2197.046480,10174.954834"/>
    <poly id="1040195245" type="building.yes" color="255,230,230" fill="1" layer="-1.00" shape="2223.948033,10287.765222 2220.055329,10276.103329 2235.298149,10271.061142 2234.227425,10267.851351 2243.612272,10264.759588 2244.783063,10268.269258 2266.048690,10261.244985 2270.942144,10275.894593 2262.619489,10278.641759 2261.528818,10275.365346 2223.948033,10287.765222"/>
    <poly id="1040195649" type="building.yes" color="255,230,230" fill="1" layer="-1.00" shape="2512.299351,10215.384237 2509.108914,10205.644268 2523.154634,10201.100698 2522.244695,10198.302046 2524.430993,10197.591345 2521.370550,10188.251181 2532.477233,10184.654999 2539.638029,10206.533794 2512.299351,10215.384237"/>
    <poly id="104043530" type="landuse.residential" color="235,235,227" fill="1" layer="-3.00" shape="1806.017262,7428.586940 1865.052013,7551.754237 1870.315527,7620.606959 1895.121709,7719.412269 1918.666447,7772.797697 1939.792892,7839.846710 1948.057643,7866.064499 1961.870335,7905.210368 1980.116670,7956.554435 2190.834339,7891.372118 2410.575225,7814.693459 2358.665091,7662.036393 2224.759338,7268.221575 2012.890700,7323.383837 1914.433425,7333.512089 1913.796616,7367.188872 1898.685226,7393.569477 1806.017262,7428.586940"/>
    <poly id="104049649" type="amenity.hospital" color="237,199,199" fill="1" layer="-1.00" shape="2489.485828,8941.097932 2484.951483,8834.660032 2547.996957,8816.592774 2578.257694,8902.959962 2489.485828,8941.097932"/>
    <poly id="104049669" type="landuse.residential" color="235,235,227" fill="1" layer="-3.00" shape="2223.196819,8544.594282 2411.357450,9022.893518 2848.329765,8900.217302 2852.858304,8879.663987 2833.471542,8786.210137 2820.871408,8717.322399 2746.521131,8537.827411 2639.824317,8301.709529 2285.162865,8434.591696 2223.196819,8544.594282"/>
    <poly id="104049693" type="landuse.recreation_ground" color="194,194,130" fill="1" layer="-3.00" shape="2424.632907,8915.279318 2411.356492,8798.884526 2474.412287,8780.817057 2484.352391,8813.672024 2460.887123,8822.613622 2478.376755,8915.739418 2424.632907,8915.279318"/>
    <poly id="104184018" type="leisure.park" color="207,245,201" fill="1" layer="-2.00" shape="2798.268942,9433.643259 2777.950647,9364.385489 2818.490018,9349.234828 2835.331923,9421.926375 2798.268942,9433.643259"/>
    <poly id="104184023" type="landuse.residential" color="235,235,227" fill="1" layer="-3.00" shape="2623.025756,9545.447781 2423.771742,9031.522248 2845.157463,8917.538835 2900.004779,9354.237240 2906.825920,9408.522536 2914.221364,9467.430401 2871.486840,9474.211851 2623.025756,9545.447781"/>
    <poly id="104184027" type="leisure.park" color="207,245,201" fill="1" layer="-2.00" shape="2544.236125,9345.782751 2610.045390,9327.741254 2612.659724,9343.122945 2636.198871,9423.382980 2577.586438,9438.201921 2544.236125,9345.782751"/>
    <poly id="104184107" type="natural.water" color="181,209,209" fill="1" layer="-4.00" shape="2703.678571,9462.945747 2687.079677,9408.493151 2718.631782,9396.714236 2739.086167,9451.202342 2703.678571,9462.945747"/>
    <poly id="104203880" type="landuse.recreation_ground" color="194,194,130" fill="1" layer="-3.00" shape="2844.208577,9569.029922 2834.337401,9529.952455 2869.445106,9522.857079 2879.766869,9561.008626 2844.208577,9569.029922"/>
    <poly id="104203895" type="landuse.residential" color="235,235,227" fill="1" layer="-3.00" shape="2732.878339,9868.880653 2624.419974,9550.376823 2872.672486,9480.567363 2916.996351,9474.265606 2947.727810,9711.136842 2962.698913,9858.396401 2947.668412,9865.986557 2876.288248,9872.836155 2732.878339,9868.880653"/>
    <poly id="104308413" type="landuse.residential" color="235,235,227" fill="1" layer="-3.00" shape="2419.654946,10135.242543 2380.229411,10032.680726 2298.458591,10077.283623 2233.198349,9903.521204 2383.353038,9891.766612 2446.366067,9886.830969 2486.278751,9878.151231 2538.002551,9873.167632 2880.263375,9888.905886 2956.535618,9877.827373 2963.648354,9881.447229 2968.798188,9938.507505 2753.498646,10125.345506 2665.986208,10162.508226 2547.028052,10202.349838 2509.207945,10104.220332 2419.654946,10135.242543"/>
    <poly id="104700124" type="leisure.park" color="207,245,201" fill="1" layer="-2.00" shape="2747.266257,10598.032584 2731.368175,10519.005069 2781.193174,10507.859648 2794.787679,10589.146973 2747.266257,10598.032584"/>
    <poly id="104700131" type="landuse.residential" color="235,235,227" fill="1" layer="-3.00" shape="2574.001743,10878.490764 2360.481155,10270.914150 2672.331856,10166.796324 2757.709056,10131.496329 2968.061255,9949.296497 2991.136259,10323.818540 2995.917978,10395.114848 3008.853670,10707.160599 3015.022880,10835.327621 2778.541444,10858.382690 2574.001743,10878.490764"/>
    <poly id="104700169" type="landuse.residential" color="235,235,227" fill="1" layer="-3.00" shape="1086.632741,11334.483601 1668.362907,11128.058866 1819.098774,11563.880069 1583.231957,11668.662809 1502.296902,11602.640007 1448.287026,11559.152376 1349.684980,11501.362265 1309.232358,11482.978453 1279.724928,11470.673668 1196.338165,11425.247367 1161.051995,11399.459207 1118.831894,11362.856590 1086.632741,11334.483601"/>
    <poly id="104700172" type="leisure.park" color="207,245,201" fill="1" layer="-2.00" shape="1549.263634,11402.965568 1541.284244,11373.827262 1531.053096,11358.221212 1556.301230,11344.954278 1590.033353,11334.843033 1631.526057,11320.418021 1650.089583,11369.262583 1631.520141,11381.837443 1592.852772,11388.614968 1549.263634,11402.965568"/>
    <poly id="104777761" type="landuse.residential" color="235,235,227" fill="1" layer="-3.00" shape="1791.723119,11466.932920 1736.352900,11312.495816 1674.931855,11125.893304 1814.248879,11072.413112 1960.750472,11024.890512 1992.901394,11137.028938 2036.535704,11232.353784 2045.332155,11259.750416 2085.950198,11407.022503 2052.721531,11419.385015 1883.969881,11432.654731 1840.269171,11453.558453 1791.723119,11466.932920"/>
    <poly id="104777769" type="landuse.residential" color="235,235,227" fill="1" layer="-3.00" shape="1595.084657,11674.418077 1764.523441,11600.285743 1818.776536,11577.751049 1947.627908,11961.687244 2005.054233,12074.079599 1969.656932,12037.160420 1933.498437,11991.287719 1854.307273,11913.674747 1763.617509,11819.625029 1670.606490,11738.708917 1595.084657,11674.418077"/>
    <poly id="104789487" type="landuse.residential" color="235,235,227" fill="1" layer="-3.00" shape="1968.245956,11981.319541 1954.639084,11947.124580 1796.298717,11473.618310 1847.461949,11458.485123 1883.025244,11438.138080 2052.909548,11426.916091 2089.769928,11413.158504 2258.235783,11904.942427 2171.594773,11898.766149 2101.709393,11915.232398 2059.706178,11940.602182 1968.245956,11981.319541"/>
    <poly id="104789491" type="leisure.park" color="207,245,201" fill="1" layer="-2.00" shape="2092.724350,11668.475000 2077.205749,11616.269475 2091.596705,11610.920456 2087.836937,11599.370508 2148.640615,11584.570297 2169.161698,11643.952532 2092.724350,11668.475000"/>
    <poly id="105019329" type="leisure.park" color="207,245,201" fill="1" layer="-2.00" shape="2408.757593,11064.364698 2451.889840,11043.999822 2405.729087,10956.412368 2368.184714,10978.445288 2394.607922,11044.492315 2408.757593,11064.364698"/>
    <poly id="105019944" type="landuse.residential" color="235,235,227" fill="1" layer="-3.00" shape="2117.731179,11459.498891 2227.301935,11486.911906 2596.120392,11591.282360 2811.315918,11664.493666 2819.044231,11658.120613 2759.949374,11479.506485 2718.617090,11363.627520 2684.016778,11263.555922 2558.856681,10898.669720 2186.856066,10963.416796 1973.774966,11026.227747 2003.980324,11137.495800 2054.828030,11263.546734 2117.731179,11459.498891"/>
    <poly id="105258496" type="leisure.park" color="207,245,201" fill="1" layer="-2.00" shape="2316.246101,11626.578507 2295.909148,11558.395024 2306.141832,11525.581222 2366.663991,11541.494633 2380.259249,11621.674356 2316.246101,11626.578507"/>
    <poly id="105258505" type="leisure.park" color="207,245,201" fill="1" layer="-2.00" shape="2551.328788,11730.728415 2541.194330,11693.564137 2576.719273,11686.383648 2583.390810,11723.350009 2551.328788,11730.728415"/>
    <poly id="105258506" type="landuse.residential" color="235,235,227" fill="1" layer="-3.00" shape="2269.577341,11903.618166 2125.575931,11481.893135 2121.712766,11471.526999 2542.315384,11583.955686 2848.179481,11703.963988 2826.433187,11801.257970 2795.182751,11805.354776 2314.967769,11912.483279 2269.577341,11903.618166"/>
    <poly id="105297366" type="landuse.residential" color="235,235,227" fill="1" layer="-3.00" shape="2414.691299,12250.327507 2376.954188,12164.987448 2356.578502,12128.006011 2318.341572,12061.197084 2269.370863,11913.791984 2316.782727,11921.955941 2799.624744,11814.209504 2826.894031,11811.493315 2814.335940,11868.955201 2811.379545,11908.634365 2825.050965,11960.170518 2861.289334,12046.184470 2874.462060,12077.065654 2829.106905,12100.143669 2634.685520,12198.859090 2534.980809,12246.196125 2486.339483,12257.817937 2477.174648,12225.922070 2414.691299,12250.327507"/>
    <poly id="105299198" type="landuse.residential" color="235,235,227" fill="1" layer="-3.00" shape="2872.193781,12038.744541 2836.621886,11949.581007 2823.694732,11915.457857 2822.948418,11877.073286 2859.775935,11710.703367 3133.465655,11815.229504 3126.683281,11832.716988 2895.435195,12030.178237 2872.193781,12038.744541"/>
    <poly id="105304946" type="landuse.residential" color="235,235,227" fill="1" layer="-3.00" shape="2573.270064,10896.565581 2737.024163,11350.930626 2796.918853,11345.713400 2935.687675,11324.105199 3007.209169,10999.163454 3020.580793,10846.949767 2784.201920,10870.049975 2573.270064,10896.565581"/>
    <poly id="105305067" type="landuse.residential" color="235,235,227" fill="1" layer="-3.00" shape="2739.713305,11359.237697 2833.944305,11655.567267 2844.078073,11658.151994 2850.110266,11648.408321 2877.102100,11525.252796 2936.131985,11327.209628 2739.713305,11359.237697"/>
    <poly id="105350812" type="leisure.park" color="207,245,201" fill="1" layer="-2.00" shape="3089.141218,11684.218566 3203.501890,11722.556319 3279.467523,11618.035138 3372.675621,11439.033111 3416.652114,11335.246405 3399.031362,11332.891008 3402.615607,11303.304862 3297.605075,11326.461053 3200.404770,11354.484538 3198.064698,11355.160497 3196.687913,11360.628729 3190.050467,11386.887053 3162.698544,11467.475672 3160.690595,11473.380982 3089.141218,11684.218566"/>
    <poly id="105350813" type="landuse.recreation_ground" color="194,194,130" fill="1" layer="-3.00" shape="3114.598162,11674.056406 3136.151660,11610.100625 3208.141848,11637.638880 3183.863393,11698.280833 3114.598162,11674.056406"/>
    <poly id="105350816" type="landuse.residential" color="235,235,227" fill="1" layer="-3.00" shape="2863.052711,11698.741925 3142.580919,11808.969072 3202.247209,11727.051288 3075.447809,11685.243709 3178.624281,11370.604401 3198.588628,11280.635480 3123.082541,11305.216985 3040.580855,11322.503873 2971.543783,11337.988734 2946.408935,11331.013716 2863.052711,11698.741925"/>
    <poly id="105578121" type="landuse.residential" color="235,235,227" fill="1" layer="-3.00" shape="3033.513499,10838.188828 3012.568018,10405.853792 3184.761543,10394.277339 3374.832044,10364.177480 3469.619917,10355.343408 3490.621657,10839.112754 3481.843346,10846.660561 3328.350970,10839.926031 3313.045960,10849.484179 3033.513499,10838.188828"/>
    <poly id="105578129" type="landuse.residential" color="235,235,227" fill="1" layer="-3.00" shape="2977.968935,11329.134536 2947.116852,11320.025136 3005.616612,11075.959496 3022.053581,10994.915627 3027.084499,10934.372686 3029.917739,10870.210875 3030.958550,10846.547228 3314.861190,10861.105070 3336.904350,10872.270739 3478.654353,10881.288396 3495.474615,10895.760978 3497.916741,11064.021224 3457.628791,11243.490143 3435.603846,11292.648155 3398.672974,11302.725831 3303.166197,11321.009363 3301.698897,11316.245639 3195.118590,11349.098699 3212.700317,11266.648242 3164.890625,11283.557441 3130.560729,11294.789182 3037.087623,11312.218394 2977.968935,11329.134536"/>
    <poly id="105605190" type="landuse.residential" color="235,235,227" fill="1" layer="-3.00" shape="3015.033225,10390.507747 2993.825693,9938.417097 2986.751527,9868.151602 3073.068722,9839.339361 3200.344873,9794.440677 3405.348094,9709.215175 3452.707685,10180.671305 3469.979151,10340.963389 3239.124248,10372.833433 3164.013239,10384.209015 3015.033225,10390.507747"/>
    <poly id="105738751" type="landuse.residential" color="235,235,227" fill="1" layer="-3.00" shape="2863.072546,8908.336345 3237.204730,8803.351159 3328.900804,9249.382885 3178.586766,9279.806662 3159.802620,9282.921897 3071.229204,9321.888749 3012.628188,9332.022476 2920.948940,9344.331950 2906.556433,9230.129577 2889.912794,9120.280189 2863.072546,8908.336345"/>
    <poly id="105738763" type="amenity.school" color="237,199,199" fill="1" layer="-2.00" shape="3003.845846,9331.022504 3001.077687,9254.274996 2958.246353,9264.797886 2909.630712,9272.576976 2917.255810,9343.401052 2974.692888,9335.703285 3003.845846,9331.022504"/>
    <poly id="105738781" type="leisure.pitch" color="207,245,201" fill="1" layer="-2.00" shape="2913.067909,9185.190554 2903.605492,9134.092000 2998.697813,9110.840864 3018.031327,9167.511405 2913.067909,9185.190554"/>
    <poly id="105738783" type="leisure.park" color="207,245,201" fill="1" layer="-2.00" shape="2973.883288,9365.536460 2977.762244,9378.660009 3004.288028,9373.412467 2999.014453,9346.490678 2971.953901,9350.626045 2973.883288,9365.536460"/>
    <poly id="105738800" type="landuse.residential" color="235,235,227" fill="1" layer="-3.00" shape="2981.206653,9850.605785 2921.555450,9356.628111 3047.316808,9338.100001 3077.367919,9327.459509 3147.976791,9297.506128 3231.282669,9277.823836 3332.672532,9259.615598 3399.126226,9690.422792 3316.854839,9727.442251 3069.869030,9823.941077 2981.206653,9850.605785"/>
    <poly id="105738801" type="leisure.park" color="207,245,201" fill="1" layer="-2.00" shape="3006.804969,9667.036615 2997.655788,9642.271459 2990.752500,9613.684821 3041.077979,9599.898321 3048.853840,9653.162784 3021.682545,9669.366143 3006.804969,9667.036615"/>