<configuration>
    <input>
        <net-file value="../networks/low.net.xml"/>
        <route-files value="../routes/low.rou.xml"/>
    </input>
    <time>
        <begin value="0"/>
        <end value="3600"/>
    </time>
</configuration>
