<?xml version="1.0" encoding="UTF-8"?>

<!-- generated on 2026-03-24 16:57:26.381224 by randomTrips.py UNKNOWN
<configuration>
    <net-file value="sumo/networks/city.net.xml"/>
    <route-file value="sumo/routes/city_passenger.rou.xml"/>
    <prefix value="p_"/>
    <trip-attributes value="departLane=&quot;best&quot; departSpeed=&quot;max&quot; departPos=&quot;random&quot;"/>
    <fringe-factor value="8"/>
    <seed value="303"/>
    <end value="2400.0"/>
    <period value="1.5 1.0 2.2"/>
</configuration>
-->

<!-- generated on 2026-03-24 16:57:25 by Eclipse SUMO duarouter Version 1.18.0
<configuration xmlns:xsi="http://www.w3.org/2001/XMLSchema-instance" xsi:noNamespaceSchemaLocation="http://sumo.dlr.de/xsd/duarouterConfiguration.xsd">

    <input>
        <net-file value="sumo/networks/city.net.xml"/>
        <route-files value="trips.trips.xml"/>
    </input>

    <output>
        <output-file value="sumo/routes/city_passenger.rou.xml"/>
        <alternatives-output value="NUL"/>
    </output>

    <time>
        <begin value="0.0"/>
        <end value="2400.0"/>
    </time>

    <report>
        <no-warnings value="true"/>
        <ignore-errors value="true"/>
        <no-step-log value="true"/>
    </report>

</configuration>
-->

<routes xmlns:xsi="http://www.w3.org/2001/XMLSchema-instance" xsi:noNamespaceSchemaLocation="http://sumo.dlr.de/xsd/routes_file.xsd">
    <vehicle id="p_0" depart="0.00" departLane="best" departPos="random" departSpeed="max">
        <route edges="-142575656#10 -142575656#9 -142575656#8 -142575656#7 -142575704#1 -142575704#0 143308542#14 143308542#15 143308542#16 143308552#1 143308549#1 143308549#2 143308549#4 670062912#0"/>
    </vehicle>
    <vehicle id="p_2" depart="3.00" departLane="best" departPos="random" departSpeed="max">
        <route edges="52081116#5 52081116#6 52081116#7 52081116#8 52081116#11 70130339#2 118262353#0 118262353#1 118262353#2 -38915290#1 -38915290#0 142575655#0 142575655#1 142575655#4 142575655#5 142575655#6 142575655#7 142575655#8 142575655#9 142575655#10 142575693#0 142575693#1 142575693#2 142575693#3 142575693#4 142575693#5 143308546#13 143308546#14 143308546#15 670062902#2 670062902#3 143308587#0 24214694#3 24214694#4 24214694#5 190083618#0 -283317455#1 -190083616"/>
    </vehicle>
    <vehicle id="p_3" depart="4.50" departLane="best" departPos="random" departSpeed="max">
        <route edges="142575690#7 -142575690#7 -142575690#6 -142575690#5 -142575690#3 -142575690#2 -543074338 -142575659#2 -142575659#1 -142575659#0 -71028774#1 -71028774#0 -71028777#2"/>
    </vehicle>
    <vehicle id="p_4" depart="6.00" departLane="best" departPos="random" departSpeed="max">
        <route edges="142575655#9 -142575655#9 -142575655#8 -142575655#7 -52081075#7 -52081075#6 -52081075#4 -52081075#3 -52081075#2 -142575674#5 -142575674#2 -142575674#1 -142575674#0 142575656#11 142575656#12 142575656#14 142575656#15 147859766 147859765#1 147859765#2 147859765#4 147859765#5 172013798#0 26991766#0"/>
    </vehicle>
    <vehicle id="p_5" depart="7.50" departLane="best" departPos="random" departSpeed="max">
        <route edges="314415495#9 314415495#10 314415495#11 314415495#12 314415495#13 314415495#15 142575656#0 142575656#1 142575656#3 142575656#5 142575656#6 142575656#7 142575656#8 142575656#9 142575656#10 142575656#11 142575656#12 142575656#14 142575656#15 582467484#1 147859763#1 147859763#2 147859763#3 147859763#4 147859763#5 147859763#7 147859763#8 147859763#9 172014854#0 172014854#1 172014854#2 -190083608#0 -320741893 320741895#0 -283317455#1 -190083616"/>
    </vehicle>
    <vehicle id="p_8" depart="12.00" departLane="best" departPos="random" departSpeed="max">
        <route edges="135777010#0 -142575657#4 -142575657#3 -142575657#2 -142575657#1 -142575657#0 143308521#4 143308521#5 143308521#6 143308521#7 143308521#8 -142575655#10 -142575655#9 -142575655#8 -142575655#7 -142575655#6 -142575655#5 -142575655#4 -142575655#1 -142575655#0 -142575700#3 -142575700#2 -142575700#1 -142575700#0 -334308447#1 -334308447#0 -318210394#0 -52080655#2 142575672#0 142575672#3"/>
    </vehicle>
    <vehicle id="p_9" depart="13.50" departLane="best" departPos="random" departSpeed="max">
        <route edges="48858193#0 48858193#2 -578917008 -318210371#2 -142575704#18 -142575704#17 -142575704#16 -142575704#15 -137483014 -137483015#3 -137483015#2 -137483015#0 314415495#2 314415495#3 314415495#4 314415495#5 314415495#6 314415495#7 314415495#8"/>
    </vehicle>
    <vehicle id="p_10" depart="15.00" departLane="best" departPos="random" departSpeed="max">
        <route edges="152839428 -152839428 45875465#0 206889086#1 541676219 318210389#0 670062912#0 670062912#1 81639675#1 670062909#1 670062908#1 670062907#1 670062907#2 670062907#3 670062907#4 670062907#5 670062907#6 143308546#3 143308546#5 143308546#6 143308546#7 143308546#9 143308546#10 143308546#11 143308546#12 143308546#13 143308546#14 143308546#15 670062902#2 670062902#3 143308587#0 24214694#3 24214694#4 24214694#5 190083618#0 -190083618#2 -24214694#5"/>
    </vehicle>
    <vehicle id="p_11" depart="16.50" departLane="best" departPos="random" departSpeed="max">
        <route edges="52081075#7 -52081075#7 -52081075#6 -52081075#4 -52081075#3 -52081075#2 -142575674#5 -142575674#2 -142575674#1 -142575674#0 142575656#11 142575656#12 142575656#14 142575656#15 147859766 147859765#1 147859765#2 -147859765#2"/>
    </vehicle>
    <vehicle id="p_12" depart="18.00" departLane="best" departPos="random" departSpeed="max">
        <route edges="-38915290#0 -318210378#5 -318210378#4 -318210378#3 -318210378#2 -318210378#0 -318210377#0 -31050360#2 143308552#1 -318210361#3 -318210361#0 -314415495#18 -314415495#16 -314415495#15 -314415495#13 -314415495#12 -314415495#11 -314415495#10 -314415495#9 -314415495#8 -314415495#7 -314415495#6 -314415495#5 -314415495#4 -314415495#3 -314415495#2 -142575709"/>
    </vehicle>
    <vehicle id="p_13" depart="19.50" departLane="best" departPos="random" departSpeed="max">
        <route edges="143308521#7 143308521#8 142575693#0 142575693#1 142575693#2 142575693#3 142575693#4 142575693#5 143308546#13 143308546#14 143308546#15 143308542#3 143308542#4 143308542#6 143308542#7 142575691#0 142575691#1 142575691#2 147859766 147859765#1 147859765#2 147859765#4 147859765#5 172013798#0 26991766#0 26991766#1 26991766#2 26991766#3"/>
    </vehicle>
    <vehicle id="p_14" depart="21.00" departLane="best" departPos="random" departSpeed="max">
        <route edges="180789857#4 257072321#8 257072321#9 257072321#10 257072321#11 257072321#12 142575655#4 142575655#5 142575655#6 142575655#7 142575655#8 142575655#9 142575655#10 142575693#0 142575693#1 142575693#2 142575693#3 142575693#4 142575693#5 143308546#13 143308546#14 143308546#15 670062902#2 670062902#3 143308587#0 24214694#3 24214694#4 24214694#5 190083618#0 326994261#0 -190083610 190083610 318210363#0"/>
    </vehicle>
    <vehicle id="p_15" depart="22.50" departLane="best" departPos="random" departSpeed="max">
        <route edges="180789857#5 180789857#6 180789857#7 180789857#8 180789857#9 180789857#10 180789857#11 180789857#12 180789857#13 180789857#14 180789857#15 52081116#11 70130339#2 118262353#0 118262353#1 118262353#2 -38915290#1 -38915290#0 -318210378#5 -318210378#4 -318210378#3 -318210378#2 -318210378#0 -318210377#0 -31050360#2 670062907#1 670062907#2 670062907#3 670062907#4 670062907#5 670062907#6 143308542#11 143308542#13 143308542#14 143308542#15 143308542#16"/>
    </vehicle>
    <vehicle id="p_16" depart="24.00" departLane="best" departPos="random" departSpeed="max">
        <route edges="-23925124#2 23925124#2 149611526 40191606#0 40191606#2 414563781 206889086#1 541676219 318210389#0 670062912#0 670062912#1 81639675#1 670062909#1 670062908#1 670062907#1 670062907#2 670062907#3 670062907#4 670062907#5 670062907#6 143308546#3 143308546#5 143308546#6 143308546#7 143308546#9 143308546#10 143308546#11 143308546#12 143308546#13 143308546#14 143308546#15 670062902#2 670062902#3"/>
    </vehicle>
    <vehicle id="p_18" depart="27.00" departLane="best" departPos="random" departSpeed="max">
        <route edges="8025704#0 8025704#1 -46424277 118262353#0 118262353#1 118262353#2 -38915290#1 -38915290#0 -318210378#5 -318210378#4 -318210378#3 -318210378#2 -318210378#0 -318210377#0 -31050360#2 143308552#1 143308549#1 143308549#2 143308549#4 52036180#1 52036180#2 52036180#4 -45875465#0 152839428 24152326#0 24152326#1 23925124#0 23925119#0 23925119#1 40191606#2"/>
    </vehicle>
    <vehicle id="p_19" depart="28.50" departLane="best" departPos="random" departSpeed="max">
        <route edges="38159999#0 38159999#1 38159999#2 38159999#3 38159999#4 -142575704#11 -142575704#9 -142575704#7 -142575704#5 -142575704#4 -142575704#3 -142575704#2 142575656#7 142575656#8 142575656#9 142575656#10 142575674#0 142575674#1 142575674#2 142575674#3 52081075#0 52081075#3 142575689 24733698#0"/>
    </vehicle>
    <vehicle id="p_21" depart="31.50" departLane="best" departPos="random" departSpeed="max">
        <route edges="-142575704#1 -142575704#0 143308542#14 143308542#15 143308542#16 31050360#0 318210377#0"/>
    </vehicle>
    <vehicle id="p_22" depart="33.00" departLane="best" departPos="random" departSpeed="max">
        <route edges="-52081075#8 142575655#7 142575655#8 142575655#9 142575655#10 -143308521#8 -143308521#7 -143308521#6 -143308521#5 -143308521#4 -143308521#3 -143308521#2 143308562#0 143308562#1 143308562#2 143308562#4 143308532#5"/>
    </vehicle>
    <vehicle id="p_23" depart="34.50" departLane="best" departPos="random" departSpeed="max">
        <route edges="412992929#2 259433184#0 -142575684#1 -142575684#0 142575685#0 142575685#1 -142575655#10 -142575655#9 -142575655#8 -142575655#7 -142575655#6 -142575655#5 -142575655#4 -142575655#1 -142575655#0 -142575700#3 -142575700#2 -142575700#1 -142575700#0 -334308447#1 -334308447#0 -318210394#0 -52080655#2 142575672#0 142575672#3"/>
    </vehicle>
    <vehicle id="p_24" depart="36.00" departLane="best" departPos="random" departSpeed="max">
        <route edges="-283317455#1 318210395 -190083618#2 -24214694#5 -24214694#4 -24214694#3 143308590#0 143308532#0 143308532#2 -143308562#4 -143308562#2 -143308562#1 -143308562#0 143308521#2 143308521#3 143308521#4 143308521#5 143308521#6 143308521#7 143308521#8 142575693#0 142575693#1 142575693#2"/>
    </vehicle>
    <vehicle id="p_27" depart="40.50" departLane="best" departPos="random" departSpeed="max">
        <route edges="314415495#0 314415495#1 -142575709 137483015#2 137483015#3 137483015#5 142575704#15 142575704#16 142575704#17 142575704#18 318210371#2 578917008 142575667#0"/>
    </vehicle>
    <vehicle id="p_28" depart="42.00" departLane="best" departPos="random" departSpeed="max">
        <route edges="-143308527#3 -143308527#2 -143308527#1 -143308527#0 -318210378#0 -318210377#0 -31050360#2 670062907#1 670062907#2 670062907#3 670062907#4 670062907#5 670062907#6 52081075#0 52081075#3"/>
    </vehicle>
    <vehicle id="p_29" depart="43.50" departLane="best" departPos="random" departSpeed="max">
        <route edges="-142575656#5 142575656#5 142575656#6 142575656#7 142575656#8 142575656#9 142575656#10 142575674#0 142575674#1 142575674#2 142575674#3 52081075#0 52081075#3 52081075#4 52081075#6 52081075#7 52081075#8 52081075#9 52081075#10 52081075#11 259466417#0 259466417#1 259466417#2 259466417#3 259466417#4 578659321#0 52081116#1 52081116#2 52081116#3 52081116#4 52081116#5 52081116#6"/>
    </vehicle>
    <vehicle id="p_30" depart="45.00" departLane="best" departPos="random" departSpeed="max">
        <route edges="143308549#4 670062912#0 670062912#1 81639675#1 670062909#1 670062908#1 670062907#1 670062907#2 670062907#3 670062907#4 670062907#5 670062907#6 -142575674#5 -142575674#2 -142575674#1 -142575674#0 142575656#11 142575656#12 142575656#14 142575656#15 147859766 147859765#1 147859765#2 147859765#4 147859765#5 172013798#0 172013798#2 172013798#3 -172013798#3"/>
    </vehicle>
    <vehicle id="p_31" depart="46.50" departLane="best" departPos="random" departSpeed="max">
        <route edges="-143308505#2 -143308505#1 -143308505#0 142575656#14 142575656#15 582467484#1 147859763#1 147859763#2 147859763#3 147859763#4 147859763#5 147859763#7 147859763#8 147859763#9 172014854#0 172014854#1"/>
    </vehicle>
    <vehicle id="p_32" depart="48.00" departLane="best" departPos="random" departSpeed="max">
        <route edges="-142575672#3 -142575672#2 52080655#0 318210394#0 318210394#1 334308447#1 142575700#0 142575700#1 142575700#2 142575700#3 142575655#0 142575655#1"/>
    </vehicle>
    <vehicle id="p_33" depart="49.50" departLane="best" departPos="random" departSpeed="max">
        <route edges="-142575690#6 142575690#6 142575690#7 142575690#8 142575693#5 143308546#13 143308546#14 143308546#15 143308542#3 143308542#4 143308542#6 143308542#7 143308542#8 143308542#11 143308542#13 143308542#14 143308542#15 143308542#16 31050360#0 318210377#0 318210377#1 142575701#0 -142575701#0"/>
    </vehicle>
    <vehicle id="p_34" depart="51.00" departLane="best" departPos="random" departSpeed="max">
        <route edges="-23925124#2 23925124#2 149611526 40191606#0 40191606#2 414563781 206889086#1 541676219 318210389#0 670062912#0 670062912#1 81639675#1 670062909#1 670062908#1 670062907#1 670062907#2 670062907#3 670062907#4 670062907#5 670062907#6 143308542#11 143308542#13 143308542#14 143308542#15 143308542#16"/>
    </vehicle>
    <vehicle id="p_35" depart="52.50" departLane="best" departPos="random" departSpeed="max">
        <route edges="-142575655#8 -142575655#7 -142575655#6 -142575655#5 -142575655#4 -142575655#1 -142575655#0 -142575700#3 -142575700#2 -142575700#1 -142575700#0 -334308447#1 334308447#1"/>
    </vehicle>
    <vehicle id="p_36" depart="54.00" departLane="best" departPos="random" departSpeed="max">
        <route edges="143308546#15 670062902#2 670062902#3 143308587#0 24214694#3 24214694#4 24214694#5 190083618#0 -283317455#1 -190083616"/>
    </vehicle>
    <vehicle id="p_37" depart="55.50" departLane="best" departPos="random" departSpeed="max">
        <route edges="190083610 318210363#0 -190083618#2 -24214694#5 -24214694#4 -24214694#3 143308590#0 143308542#0 143308542#3 143308542#4 143308542#6 143308542#7 143308542#8 143308542#11 143308542#13 143308542#14 143308542#15 143308542#16 143308552#1 143308549#1 143308549#2 143308549#4 142575672#0 -142575672#2"/>
    </vehicle>
    <vehicle id="p_38" depart="57.00" departLane="best" departPos="random" departSpeed="max">
        <route edges="-24214694#3 24214694#3 24214694#4 24214694#5 190083618#0 320741894#0 320741893 190083608#0 190083608#1 190083608#2 190083608#3 318210369#1 318210366 318210367#1 142575678#0"/>
    </vehicle>
    <vehicle id="p_39" depart="58.50" departLane="best" departPos="random" departSpeed="max">
        <route edges="318210378#3 -318210378#3 -318210378#2 -318210378#0 -318210377#0 -31050360#2 143308552#1 143308549#1 143308549#2 143308549#4"/>
    </vehicle>
    <vehicle id="p_40" depart="60.00" departLane="best" departPos="random" departSpeed="max">
        <route edges="-142575656#6 142575656#6 142575656#7 142575656#8 142575656#9 142575656#10 142575674#0 142575674#1 142575674#2 142575674#3 143308546#3 143308546#5 143308546#6 143308546#7 143308546#9 143308546#10 143308546#11 143308546#12 143308546#13 143308546#14 143308546#15 670062902#2 670062902#3"/>
    </vehicle>
    <vehicle id="p_42" depart="63.00" departLane="best" departPos="random" departSpeed="max">
        <route edges="143308505#1 -143308505#1 -143308505#0 -142575656#12 -142575656#11 142575674#0 142575674#1 142575674#2 142575674#3 143308546#3 143308546#5 -24733698#1 71028777#0 71028777#2 71028774#0 71028774#1 142575659#0 142575659#1 142575659#2 543074338 -142575690#0 -142575673#1 -142575673#0"/>
    </vehicle>
    <vehicle id="p_45" depart="67.50" departLane="best" departPos="random" departSpeed="max">
        <route edges="142575656#6 -142575704#1 -142575704#0 143308542#14 143308542#15 143308542#16 31050360#0 318210377#0 318210377#1 -318210378#0"/>
    </vehicle>
    <vehicle id="p_46" depart="69.00" departLane="best" departPos="random" departSpeed="max">
        <route edges="142575677#3 -318210378#3 -318210378#2 -318210378#0 -318210377#0 -31050360#2 670062907#1 670062907#2 670062907#3 670062907#4 670062907#5 670062907#6 143308546#3 143308546#5 143308546#6 143308546#7 143308546#9 143308546#10 143308546#11 143308546#12 143308546#13 143308546#14 143308546#15 143308542#3 143308542#4 143308542#6 143308542#7"/>
    </vehicle>
    <vehicle id="p_47" depart="70.50" departLane="best" departPos="random" departSpeed="max">
        <route edges="142575656#5 142575656#6 142575656#7 142575656#8 142575656#9 142575656#10 142575656#11 142575656#12 142575656#14 142575656#15 -142575691#2 142575688#4 142575688#5"/>
    </vehicle>
    <vehicle id="p_48" depart="72.00" departLane="best" departPos="random" departSpeed="max">
        <route edges="-318210369#1 318210369#1 318210366 318210367#1 142575678#0 142575678#1 38160000 -172013798#3 -172013798#2 -172013798#0 -147859765#5 -147859765#4 -147859765#2 -147859765#1 -147859765#0 -142575691#2 -142575691#1 -142575691#0 143308542#8 143308546#3 143308546#5 -24733698#1 71028777#0 -71028777#0"/>
    </vehicle>
    <vehicle id="p_49" depart="73.50" departLane="best" departPos="random" departSpeed="max">
        <route edges="-142575674#5 142575674#3 52081075#0 52081075#3 52081075#4 52081075#6 52081075#7 142575655#7 142575655#8 142575655#9 142575655#10 -143308521#8 -143308521#7 -143308521#6 -143308521#5 -143308521#4 142575657#0 142575657#1 142575657#2"/>
    </vehicle>
    <vehicle id="p_50" depart="75.00" departLane="best" departPos="random" departSpeed="max">
        <route edges="142575688#4 -142575688#4 -142575688#3 -142575688#2 -142575688#1 -142575688#0 142575674#3 52081075#0 52081075#3 52081075#4 142575710#0 142575710#2 -142575710#2"/>
    </vehicle>
    <vehicle id="p_51" depart="76.50" departLane="best" departPos="random" departSpeed="max">
        <route edges="-334308447#2 142575700#0 142575700#1 142575700#2 142575700#3 142575655#0 142575655#1 142575655#4 142575655#5 142575655#6 142575655#7 142575655#8 142575655#9 142575655#10 142575693#0 142575693#1 142575693#2 142575693#3 142575693#4"/>
    </vehicle>
    <vehicle id="p_52" depart="78.00" departLane="best" departPos="random" departSpeed="max">
        <route edges="142575684#4 -142575684#4 -142575684#1 -142575684#0 142575685#0 142575685#1 -142575655#10 -142575655#9 -142575655#8 -142575655#7 -142575655#6 -142575655#5 -142575655#4 -142575655#1 -142575655#0 -318210378#5 -318210378#4 -318210378#3 -318210378#2 143308527#0 143308527#1 143308527#2 143308527#3"/>
    </vehicle>
    <vehicle id="p_53" depart="79.50" departLane="best" departPos="random" departSpeed="max">
        <route edges="-24733698#0 -142575689 -52081075#3 -52081075#2 143308542#11 143308542#13 143308542#14 143308542#15 143308542#16 143308552#1 -318210361#3 -318210361#0 -314415495#18 -314415495#16 -314415495#15 -314415495#13 -314415495#12 -314415495#11 -314415495#10 -314415495#9 -314415495#8 -314415495#7 -314415495#6 314415495#6"/>
    </vehicle>
    <vehicle id="p_54" depart="81.00" departLane="best" departPos="random" departSpeed="max">
        <route edges="-142575710#4 142575710#4 142575710#5 318210378#4 318210378#5 38915290#0 38915290#1 8025704#0 8025704#1 -46424277 46424277"/>
    </vehicle>
    <vehicle id="p_55" depart="82.50" departLane="best" departPos="random" departSpeed="max">
        <route edges="-448097237 143308527#7 -318210394#0 -52080655#2 52036180#1 52036180#2 52036180#4 -45875465#0 152839428 24152326#0 24152326#1 -20553015"/>
    </vehicle>
    <vehicle id="p_56" depart="84.00" departLane="best" departPos="random" departSpeed="max">
        <route edges="-38507369#0 -142575688#12 -142575688#11 -142575688#8 -142575688#7 -142575688#6 -142575688#5 -142575688#4 -142575688#3 -142575688#2 -142575688#1 -142575688#0 142575674#3 52081075#0 52081075#3 52081075#4 52081075#6 52081075#7 52081075#8 52081075#9 52081075#10 52081075#11 259466417#0 259466417#1 259466417#2 259466417#3 259466417#4 578659321#0 52081116#1 52081116#2 52081116#3 52081116#4 52081116#5 52081116#6"/>
    </vehicle>
    <vehicle id="p_57" depart="85.50" departLane="best" departPos="random" departSpeed="max">
        <route edges="180789857#11 180789857#12 180789857#13 180789857#14 180789857#15 52081116#11 70130339#2 118262353#0 118262353#1 118262353#2 -38915290#1 -38915290#0 142575655#0 142575655#1 142575655#4 142575655#5 142575655#6 52081075#8 52081075#9 52081075#10 52081075#11 259466417#0 259466417#1 259466417#2 259466417#3 259466417#4 578659321#0 52081116#1 52081116#2 52081116#3"/>
    </vehicle>
    <vehicle id="p_59" depart="88.50" departLane="best" departPos="random" departSpeed="max">
        <route edges="314415495#0 314415495#1 -142575709 137483015#2 137483015#3 137483015#5 142575704#15 142575704#16 142575704#17 142575704#18 -318210371#1 -318210371#0 -318210362 -318210367#0 -318210369#1 -318210369#0 -190083608#2 -190083608#1 -190083608#0 -320741893 320741895#0 -190083618#2 -24214694#5 -24214694#4 -24214694#3 -142575658#2 -142575658#1 -142575658#0"/>
    </vehicle>
    <vehicle id="p_60" depart="90.00" departLane="best" departPos="random" departSpeed="max">
        <route edges="314415495#10 314415495#11 314415495#12 314415495#13 314415495#15 142575656#0 142575656#1 142575656#3 142575656#5 142575656#6 142575656#7 142575656#8 142575656#9 142575656#10 142575656#11 142575656#12 142575656#14 142575656#15 582467484#1 147859763#1 147859763#2 147859763#3 147859763#4 147859763#5 147859763#7 147859763#8 147859763#9 172014854#0 172014854#1 172014854#2 -190083608#0 -320741893 320741895#0 -283317455#1 -190083616"/>
    </vehicle>
    <vehicle id="p_61" depart="91.50" departLane="best" departPos="random" departSpeed="max">
        <route edges="-38160000 38160000 -172013798#3 -172013798#2 -172013798#0 -147859765#5 -147859765#4 -147859765#2 -147859765#1 -147859765#0 -142575691#2 -142575691#1 -142575691#0 143308542#8 143308546#3 143308546#5 143308546#6 143308546#7"/>
    </vehicle>
    <vehicle id="p_62" depart="93.00" departLane="best" departPos="random" departSpeed="max">
        <route edges="142575688#8 -142575688#8 -142575688#7 -142575688#6 -142575688#5 -142575688#4 -142575688#3 -142575688#2 -142575688#1 -142575688#0 142575674#3 52081075#0 52081075#3 52081075#4 52081075#6 52081075#7 142575655#7 142575655#8 142575655#9 142575655#10 142575693#0"/>
    </vehicle>
    <vehicle id="p_64" depart="96.00" departLane="best" departPos="random" departSpeed="max">
        <route edges="48858193#0 48858193#2 -578917008 -318210371#2 -318210371#1 -318210371#0 142575678#0 142575678#1 38160000 -172013798#3 -172013798#2 -172013798#0 -147859765#5 -147859765#4 -147859765#2 -147859765#1 -147859765#0 -142575656#15 -142575656#14"/>
    </vehicle>
    <vehicle id="p_65" depart="97.50" departLane="best" departPos="random" departSpeed="max">
        <route edges="-142575655#1 142575655#1 142575655#4 142575655#5 142575655#6 142575655#7 142575655#8 142575655#9 142575655#10 -143308521#8 -143308521#7 -143308521#6 -143308521#5 -143308521#4 -143308521#3 -143308521#2 143308562#0 143308562#1 143308562#2 143308562#4 143308532#5"/>
    </vehicle>
    <vehicle id="p_66" depart="99.00" departLane="best" departPos="random" departSpeed="max">
        <route edges="-142575684#1 -142575684#0 142575685#0 142575685#1 142575693#0 142575693#1 142575693#2 142575693#3 142575693#4 142575693#5 143308546#13 143308546#14 143308546#15 670062902#2 670062902#3 143308587#0 24214694#3 24214694#4 24214694#5 190083618#0 -283317455#1 -190083616"/>
    </vehicle>
    <vehicle id="p_67" depart="100.50" departLane="best" departPos="random" departSpeed="max">
        <route edges="-31050360#2 670062907#1 670062907#2 670062907#3 670062907#4 670062907#5 670062907#6 -142575674#5 -142575674#2 -142575674#1 -142575674#0 142575656#11 142575656#12 -142575656#12"/>
    </vehicle>
    <vehicle id="p_68" depart="102.00" departLane="best" departPos="random" departSpeed="max">
        <route edges="135777010#0 -142575657#4 -142575657#3 -142575657#2 -142575657#1 -142575657#0 143308521#4 143308521#5 143308521#6 143308521#7 143308521#8 -142575655#10 -142575655#9 -142575655#8 -142575655#7 -142575655#6 -142575655#5 -142575655#4 -142575655#1 -142575655#0 -142575700#3 -142575700#2 -142575700#1 -142575700#0 -334308447#1 -334308447#0 -318210394#0 -52080655#2 142575672#0 142575672#3 142575695#0 142575695#1 142575695#2 670062913#1"/>
    </vehicle>
    <vehicle id="p_69" depart="103.50" departLane="best" departPos="random" departSpeed="max">
        <route edges="318210395 -190083618#2 -24214694#5 -24214694#4 -24214694#3 -142575658#2 -142575658#1 -142575658#0"/>
    </vehicle>
    <vehicle id="p_71" depart="106.50" departLane="best" departPos="random" departSpeed="max">
        <route edges="318210394#1 334308447#1 142575700#0 142575700#1 142575700#2 142575700#3 142575655#0 142575655#1 142575655#4 142575655#5 142575655#6 142575655#7 142575655#8 142575655#9 142575655#10 -143308521#8 -143308521#7 -143308521#6 -143308521#5 -143308521#4"/>
    </vehicle>
    <vehicle id="p_72" depart="108.00" departLane="best" departPos="random" departSpeed="max">
        <route edges="-334308447#2 -334308447#1 142575677#1 142575677#2 142575677#3 -142575710#5 -142575710#4 -142575710#3"/>
    </vehicle>
    <vehicle id="p_73" depart="109.50" departLane="best" departPos="random" departSpeed="max">
        <route edges="20553015 23925124#0 23925119#0 23925119#1 40191606#2 414563781 206889086#1 541676219 318210389#0 670062912#0 670062912#1 81639675#1 670062909#1 670062908#1 670062907#1 670062907#2 670062907#3 670062907#4 670062907#5 670062907#6 -142575674#5 -142575674#2 -142575674#1 -142575674#0 142575656#11 142575656#12 142575656#14 142575656#15 582467484#1 147859763#1 147859763#2 147859763#3 147859763#4 147859763#5 147859763#7 147859763#8 147859763#9 172014854#0 172014854#1 172014854#2"/>
    </vehicle>
    <vehicle id="p_74" depart="111.00" departLane="best" departPos="random" departSpeed="max">
        <route edges="-314415495#12 314415495#12 314415495#13 314415495#15 314415495#16 314415495#18 318210361#0 318210361#1 670062909#1 670062908#1 670062907#1"/>
    </vehicle>
    <vehicle id="p_75" depart="112.50" departLane="best" departPos="random" departSpeed="max">
        <route edges="190083616 318210395 320741894#0 320741893 190083608#0 -172014854#2 -172014854#1 -172014854#0 -147859763#9 -147859763#8 -147859763#7 -147859763#5 -147859763#4 -147859763#3 -147859763#2 -147859763#1 -147859763#0 147859766 147859765#1 147859765#2 147859765#4 147859765#5 172013798#0 172013798#2"/>
    </vehicle>
    <vehicle id="p_76" depart="114.00" departLane="best" departPos="random" departSpeed="max">
        <route edges="142575656#8 -142575656#8 -142575656#7 -142575704#1 -142575704#0 143308542#14 143308542#15 143308542#16 143308552#1 143308549#1 143308549#2 143308549#4 52080655#0 318210394#0 318210394#1 334308447#1 334308447#2"/>
    </vehicle>
    <vehicle id="p_78" depart="117.00" departLane="best" departPos="random" departSpeed="max">
        <route edges="46039050#0 -143308562#4 -142575673#1 -142575673#0"/>
    </vehicle>
    <vehicle id="p_79" depart="118.50" departLane="best" departPos="random" departSpeed="max">
        <route edges="-142575657#3 -142575657#2 -142575657#1 -142575657#0 143308521#4 143308521#5 143308521#6 143308521#7 143308521#8 142575693#0 142575693#1 142575693#2 142575693#3 142575693#4 142575693#5 143308546#13 143308546#14 143308546#15 143308542#3 143308542#4 143308542#6 143308542#7 142575691#0 142575691#1 142575691#2 147859766 147859765#1 147859765#2 147859765#4 147859765#5 172013798#0 172013798#2 172013798#3 -172013798#3"/>
    </vehicle>
    <vehicle id="p_80" depart="120.00" departLane="best" departPos="random" departSpeed="max">
        <route edges="48858193#0 48858193#2 -578917008 -318210371#2 -318210371#1 -318210371#0 -318210362"/>
    </vehicle>
    <vehicle id="p_82" depart="123.00" departLane="best" departPos="random" departSpeed="max">
        <route edges="142575701#3 143308493#2 143308493#3 670062907#5 670062907#6 -142575674#5 -142575674#2 -142575674#1 -142575674#0 -142575656#10 -142575656#9 -142575656#8 -142575656#7 -142575656#6 -142575656#5 142575656#5"/>
    </vehicle>
    <vehicle id="p_83" depart="124.50" departLane="best" departPos="random" departSpeed="max">
        <route edges="314415495#16 314415495#18 318210361#0 318210361#1 670062909#1 670062908#1 670062907#1 670062907#2 670062907#3 670062907#4 670062907#5 670062907#6 143308546#3 143308546#5 -24733698#1 71028777#0 71028777#2 71028774#0 71028774#1 142575659#0"/>
    </vehicle>
    <vehicle id="p_84" depart="126.00" departLane="best" departPos="random" departSpeed="max">
        <route edges="257072321#5 257072321#6 257072321#7 257072321#8 257072321#9 257072321#10 257072321#11 257072321#12 -142575655#1 -142575655#0 -318210378#5 -318210378#4 -318210378#3 -318210378#2 142575701#0 -142575701#0"/>
    </vehicle>
    <vehicle id="p_85" depart="127.50" departLane="best" departPos="random" departSpeed="max">
        <route edges="24152326#1 23925124#0 23925119#0 23925119#1 40191606#2 414563781 206889086#1 541676219 318210389#0 670062912#0 670062912#1 81639675#1 670062909#1 670062908#1 670062907#1 670062907#2 670062907#3 670062907#4 670062907#5 670062907#6 143308546#3 143308546#5 -24733698#1 71028777#0 71028777#2 71028774#0 71028774#1 142575659#0 142575659#1 142575659#2"/>
    </vehicle>
    <vehicle id="p_86" depart="129.00" departLane="best" departPos="random" departSpeed="max">
        <route edges="142575688#7 -142575688#7 -142575688#6 -142575688#5 -142575688#4 -142575688#3 -142575688#2 -142575688#1 -142575688#0 142575674#3 143308542#11 143308542#13 143308542#14 143308542#15 143308542#16 31050360#0 318210377#0 318210377#1 142575701#0 -142575701#0"/>
    </vehicle>
    <vehicle id="p_88" depart="132.00" departLane="best" departPos="random" departSpeed="max">