<?xml version="1.0" encoding="UTF-8"?>

<!-- generated on 2026-03-25 23:32:06.152842 by randomTrips.py UNKNOWN
<configuration>
    <net-file value="/home/vivek/research/NIT hackathon/final_year_project/sumo/networks/city_large.net.xml"/>
    <route-file value="/home/vivek/research/NIT hackathon/final_year_project/sumo/routes/city_large_freight.rou.xml"/>
    <prefix value="t_"/>
    <trip-attributes value="departLane=&quot;best&quot; departSpeed=&quot;max&quot; departPos=&quot;random&quot;"/>
    <vehicle-class value="truck"/>
    <seed value="202"/>
    <period value="6.0"/>
</configuration>
-->

<!-- generated on 2026-03-25 23:32:06 by Eclipse SUMO duarouter Version 1.18.0
<configuration xmlns:xsi="http://www.w3.org/2001/XMLSchema-instance" xsi:noNamespaceSchemaLocation="http://sumo.dlr.de/xsd/duarouterConfiguration.xsd">

    <input>
        <net-file value="/home/vivek/research/NIT hackathon/final_year_project/sumo/networks/city_large.net.xml"/>
        <route-files value="trips.trips.xml"/>
    </input>

    <output>
        <output-file value="/home/vivek/research/NIT hackathon/final_year_project/sumo/routes/city_large_freight.rou.xml"/>
        <alternatives-output value="NUL"/>
    </output>

    <time>
        <begin value="0.0"/>
        <end value="3600.0"/>
    </time>

    <report>
        <no-warnings value="true"/>
        <ignore-errors value="true"/>
        <no-step-log value="true"/>
    </report>

</configuration>
-->

<routes xmlns:xsi="http://www.w3.org/2001/XMLSchema-instance" xsi:noNamespaceSchemaLocation="http://sumo.dlr.de/xsd/routes_file.xsd">
    <vType id="t__truck" vClass="truck"/>
    <vehicle id="t_14" type="t__truck" depart="84.00" departLane="best" departPos="random" departSpeed="max">
        <route edges="c11_143308493#1 c11_-143308493#1 c11_-143308493#0 c11_142575710#2 c11_142575710#3 c11_142575710#4 c11_142575710#5 c11_-142575677#3 c11_-142575677#2 c11_142575677#2"/>
    </vehicle>
    <vehicle id="t_18" type="t__truck" depart="108.00" departLane="best" departPos="random" departSpeed="max">
        <route edges="c00_142575688#7 c00_-142575688#7 c00_-142575688#6 c00_-142575688#5 c00_-142575688#4 c00_142575691#2 c00_-142575656#15 c00_-142575656#14 c00_-142575656#12 c00_-142575656#11 c00_-142575656#10 c00_-142575656#9 c00_-142575656#8 c00_-142575656#7 c00_-142575656#6 c00_-142575656#5 c00_-142575656#3 c00_-142575656#1 c00_-142575656#0 c00_-314415495#15 c00_-314415495#13 c00_-314415495#12 c00_-314415495#11 c00_-314415495#10 c00_-314415495#9 c00_-314415495#8 c00_-314415495#7 c00_-314415495#6 c00_38159999#0"/>
    </vehicle>
    <vehicle id="t_26" type="t__truck" depart="156.00" departLane="best" departPos="random" departSpeed="max">
        <route edges="c10_-142575684#1 c10_-142575684#0 c10_142575685#0 c10_142575685#1 c10_-142575655#10 c10_-142575655#9 c10_-142575655#8 c10_-142575655#7 c10_-52081075#7 c10_-52081075#6 c10_-52081075#4 c10_-52081075#3 c10_-52081075#2 c10_143308542#11 c10_143308542#13 c10_143308542#14 c10_143308542#15 c10_143308542#16 c10_143308552#1 c10_-318210361#3 c10_-318210361#0 c10_-314415495#18 c10_-314415495#16 c10_-314415495#15 c10_-314415495#13 c10_-314415495#12 c10_-314415495#11 c10_-314415495#10"/>
    </vehicle>
    <vehicle id="t_31" type="t__truck" depart="186.00" departLane="best" departPos="random" departSpeed="max">
        <route edges="c11_314415495#13 c11_314415495#15 c11_314415495#16 c11_314415495#18 c11_318210361#0 c11_318210361#1 c11_143308549#1 c11_143308549#2 c11_143308549#4 c11_52080655#0 c11_318210394#0 c11_318210394#1 c11_334308447#1"/>
    </vehicle>
    <vehicle id="t_39" type="t__truck" depart="234.00" departLane="best" departPos="random" departSpeed="max">
        <route edges="c00_142575693#0 c00_142575693#1 c00_142575693#2 c00_142575693#3 c00_142575693#4 c00_142575693#5 c00_143308546#13 c00_143308546#14 c00_143308546#15 c00_143308542#3 c00_143308542#4 c00_143308542#6 c00_143308542#7 c00_142575691#0 c00_142575691#1 c00_142575691#2 c00_582467484#1 c00_147859763#1 c00_-147859763#1"/>
    </vehicle>
    <vehicle id="t_44" type="t__truck" depart="264.00" departLane="best" departPos="random" departSpeed="max">
        <route edges="c00_143308527#7 c00_-318210394#0 c00_-52080655#2 c00_670062912#0 c00_670062912#1 c00_81639675#1 c00_670062909#1 c00_670062908#1 c00_670062907#1 c00_670062907#2 c00_670062907#3 c00_670062907#4 c00_670062907#5 c00_670062907#6 c00_143308546#3 c00_143308546#5 c00_143308546#6 c00_143308546#7 c00_143308546#9 c00_143308546#10 c00_143308546#11 c00_143308546#12 c00_143308546#13 c00_143308546#14 c00_143308546#15 c00_670062902#2 c00_670062902#3 c00_143308587#0 c00_-142575658#2 c00_-142575658#1 c00_-142575658#0"/>
    </vehicle>
    <vehicle id="t_47" type="t__truck" depart="282.00" departLane="best" departPos="random" departSpeed="max">
        <route edges="c00_-142575655#9 c00_-142575655#8 c00_-142575655#7 c00_-142575655#6 c00_-142575655#5 c00_-142575655#4 c00_180789857#1 c00_180789857#2 c00_180789857#3 c00_180789857#4 c00_257072321#8"/>
    </vehicle>
    <vehicle id="t_60" type="t__truck" depart="360.00" departLane="best" departPos="random" departSpeed="max">
        <route edges="c10_257072321#5 c10_257072321#6 c10_257072321#7 c10_257072321#8 c10_257072321#9 c10_257072321#10 c10_257072321#11 c10_257072321#12 c10_-142575687#1 c10_-142575687#0 c10_-142575710#0 c10_-52081075#4 c10_-52081075#3 c10_-52081075#2 c10_-142575674#5 c10_-142575674#2 c10_-142575674#1 c10_-142575674#0 c10_-142575656#10 c10_-142575656#9 c10_-142575656#8 c10_-142575656#7 c10_-142575656#6 c10_-142575656#5 c10_-142575656#3"/>
    </vehicle>
    <vehicle id="t_66" type="t__truck" depart="396.00" departLane="best" departPos="random" departSpeed="max">
        <route edges="c01_259466417#3 c01_259466417#4 c01_578659321#0 c01_578659322 c01_313964778#0 c01_313964778#1 c01_313964778#2 c01_-52081075#11 c01_-52081075#10 c01_-52081075#9 c01_-52081075#8 c01_142575655#7 c01_142575655#8 c01_142575655#9 c01_142575655#10 c01_142575693#0"/>
    </vehicle>
    <vehicle id="t_69" type="t__truck" depart="414.00" departLane="best" departPos="random" departSpeed="max">
        <route edges="c01_-143308527#6 c01_-143308527#5 c01_-143308527#3 c01_-143308527#2 c01_-143308527#1 c01_-143308527#0 c01_-318210378#0 c01_-318210377#0 c01_-31050360#2 c01_670062907#1 c01_670062907#2 c01_670062907#3 c01_670062907#4 c01_670062907#5 c01_670062907#6 c01_143308546#3 c01_143308546#5 c01_143308546#6 c01_143308546#7 c01_143308546#9 c01_143308546#10 c01_143308546#11 c01_143308546#12 c01_143308546#13 c01_143308546#14 c01_143308546#15 c01_670062902#2"/>
    </vehicle>
    <vehicle id="t_70" type="t__truck" depart="420.00" departLane="best" departPos="random" departSpeed="max">
        <route edges="c11_-52081075#10 c11_-52081075#9 c11_-52081075#8 c11_-52081075#7 c11_-52081075#6 c11_-52081075#4 c11_-52081075#3 c11_-52081075#2 c11_143308542#11 c11_143308542#13 c11_142575704#0 c11_142575704#1 c11_142575704#2 c11_142575704#3 c11_142575704#4 c11_142575704#5 c11_142575704#7 c11_26991766#7 c11_26991766#8 c11_26991766#9 c11_26991766#10"/>
    </vehicle>
    <vehicle id="t_73" type="t__truck" depart="438.00" departLane="best" departPos="random" departSpeed="max">
        <route edges="c01_143308562#4 c01_46039050#4 c01_143308542#0 c01_143308542#3 c01_143308542#4 c01_143308542#6 c01_143308542#7 c01_143308542#8 c01_143308542#11 c01_143308542#13 c01_143308542#14 c01_143308542#15 c01_143308542#16 c01_31050360#0 c01_318210377#0 c01_318210377#1"/>
    </vehicle>
    <vehicle id="t_77" type="t__truck" depart="462.00" departLane="best" departPos="random" departSpeed="max">
        <route edges="c10_52081116#6 c10_52081116#7 c10_52081116#8 c10_52081116#11 c10_70130339#2 c10_118262353#0 c10_118262353#1 c10_118262353#2 c10_-38915290#1 c10_-38915290#0 c10_-318210378#5 c10_-318210378#4 c10_-318210378#3 c10_-318210378#2 c10_-318210378#0 c10_-318210377#0 c10_-31050360#2 c10_670062907#1 c10_670062907#2 c10_670062907#3 c10_670062907#4 c10_670062907#5 c10_670062907#6 c10_-142575674#5 c10_142575688#0 c10_142575688#1 c10_142575688#2 c10_142575688#3 c10_142575691#2 c10_147859766 c10_147859765#1 c10_147859765#2 c10_147859765#4 c10_147859765#5 c10_172013798#0 c10_172013798#2 c10_172013798#3 c10_38160001#0 c10_38160001#1 c10_-318210367#0"/>
    </vehicle>
    <vehicle id="t_79" type="t__truck" depart="474.00" departLane="best" departPos="random" departSpeed="max">
        <route edges="c10_190083608#2 c10_190083608#3 c10_318210369#1 c10_318210366 c10_318210367#1 c10_142575678#0 c10_142575678#1 c10_38160000 c10_-172013798#3 c10_-172013798#2 c10_-172013798#0 c10_-147859765#5 c10_-147859765#4 c10_-147859765#2 c10_-147859765#1 c10_-147859765#0 c10_-142575691#2 c10_-142575688#3 c10_-142575688#2 c10_-142575688#1 c10_-142575688#0 c10_142575674#3 c10_143308546#3 c10_143308546#5 c10_-24733698#1 c10_71028777#0 c10_71028777#2 c10_142575692#3 c10_142575692#5"/>
    </vehicle>
    <vehicle id="t_80" type="t__truck" depart="480.00" departLane="best" departPos="random" departSpeed="max">
        <route edges="c00_257072321#5 c00_257072321#6 c00_257072321#7 c00_257072321#8 c00_257072321#9 c00_257072321#10 c00_257072321#11 c00_257072321#12 c00_142575655#4 c00_142575655#5 c00_142575655#6 c00_52081075#8 c00_52081075#9 c00_52081075#10 c00_52081075#11 c00_259466417#0"/>
    </vehicle>
    <vehicle id="t_89" type="t__truck" depart="534.00" departLane="best" departPos="random" departSpeed="max">
        <route edges="c00_142575701#2 c00_-142575701#2 c00_-142575701#0 c00_-318210378#0 c00_-318210377#0 c00_-31050360#2 c00_143308552#1 c00_-318210361#3 c00_-318210361#0 c00_-314415495#18 c00_-314415495#16 c00_-314415495#15 c00_-314415495#13 c00_-314415495#12 c00_-314415495#11 c00_-314415495#10 c00_-314415495#9"/>
    </vehicle>
    <vehicle id="t_104" type="t__truck" depart="624.00" departLane="best" departPos="random" departSpeed="max">
        <route edges="c10_318210378#2 c10_318210378#3 c10_318210378#4 c10_318210378#5 c10_142575655#0 c10_142575655#1 c10_142575655#4 c10_142575655#5 c10_142575655#6 c10_142575655#7 c10_142575655#8"/>
    </vehicle>
    <vehicle id="t_108" type="t__truck" depart="648.00" departLane="best" departPos="random" departSpeed="max">
        <route edges="c01_142575691#0 c01_-142575691#0 c01_143308542#8 c01_52081075#0 c01_52081075#3 c01_52081075#4 c01_142575710#0 c01_142575687#0 c01_142575687#1 c01_180789857#1 c01_180789857#2 c01_180789857#3 c01_180789857#4 c01_180789857#5 c01_180789857#6 c01_180789857#7"/>
    </vehicle>
    <vehicle id="t_115" type="t__truck" depart="690.00" departLane="best" departPos="random" departSpeed="max">
        <route edges="c00_153021549 c00_40191606#0 c00_40191606#2 c00_414563781 c00_206889086#1 c00_541676219 c00_318210389#0 c00_670062912#0 c00_670062912#1 c00_81639675#1 c00_670062909#1 c00_670062908#1 c00_670062907#1 c00_670062907#2 c00_670062907#3 c00_670062907#4 c00_-143308493#3 c00_-143308493#2"/>
    </vehicle>
    <vehicle id="t_120" type="t__truck" depart="720.00" departLane="best" departPos="random" departSpeed="max">
        <route edges="c11_-143308527#0 c11_-318210378#0 c11_-318210377#0 c11_-31050360#2 c11_670062907#1 c11_670062907#2 c11_670062907#3 c11_670062907#4 c11_670062907#5 c11_670062907#6 c11_-142575674#5 c11_142575688#0 c11_142575688#1 c11_142575688#2 c11_142575688#3 c11_142575691#2 c11_147859766 c11_147859765#1 c11_147859765#2 c11_147859765#4 c11_147859765#5 c11_172013798#0 c11_172013798#2 c11_-172013798#2"/>
    </vehicle>
    <vehicle id="t_126" type="t__truck" depart="756.00" departLane="best" departPos="random" departSpeed="max">
        <route edges="c01_-52081075#6 c01_-52081075#4 c01_-52081075#3 c01_-52081075#2 c01_143308542#11 c01_143308542#13 c01_143308542#14 c01_143308542#15 c01_143308542#16 c01_143308552#1 c01_143308549#1 c01_143308549#2 c01_143308549#4 c01_52036180#1 c01_52036180#2 c01_52036180#4 c01_-45875465#0 c01_152839428 c01_24152326#0 c01_24152326#1 c01_23925124#0 c01_23925119#0 c01_23925122"/>
    </vehicle>
    <vehicle id="t_127" type="t__truck" depart="762.00" departLane="best" departPos="random" departSpeed="max">
        <route edges="c10_-142575688#0 c10_-142575674#2 c10_-142575674#1 c10_-142575674#0 c10_-142575656#10 c10_-142575656#9 c10_-142575656#8"/>
    </vehicle>
    <vehicle id="t_129" type="t__truck" depart="774.00" departLane="best" departPos="random" departSpeed="max">
        <route edges="c10_142575704#0 c10_-142575704#0 c10_143308542#14 c10_143308542#15 c10_143308542#16 c10_670062907#1 c10_670062907#2 c10_670062907#3 c10_670062907#4 c10_-143308493#3 c10_-143308493#2 c10_-143308493#1 c10_-143308493#0 c10_142575710#2 c10_142575710#3"/>
    </vehicle>
    <vehicle id="t_130" type="t__truck" depart="780.00" departLane="best" departPos="random" departSpeed="max">
        <route edges="c00_-142575662#1 c00_142575662#1 c00_-142575657#3 c00_-142575657#2 c00_-142575657#1 c00_-142575657#0 c00_-143308521#3 c00_-143308521#2 c00_-143308521#1 c00_-143308521#0 c00_143308521#0"/>
    </vehicle>
    <vehicle id="t_132" type="t__truck" depart="792.00" departLane="best" departPos="random" departSpeed="max">
        <route edges="c11_142575656#9 c11_142575656#10 c11_142575656#11 c11_142575656#12 c11_142575656#14 c11_142575656#15 c11_-142575691#2 c11_-142575691#1 c11_-142575691#0 c11_142575691#0"/>
    </vehicle>
    <vehicle id="t_134" type="t__truck" depart="804.00" departLane="best" departPos="random" departSpeed="max">
        <route edges="c10_142575678#1 c10_38160000 c10_-172013798#3 c10_-172013798#2 c10_-172013798#0 c10_-147859765#5 c10_-147859765#4 c10_-147859765#2 c10_-147859765#1 c10_-147859765#0 c10_-142575691#2 c10_-142575688#3 c10_-142575688#2 c10_-142575688#1 c10_-142575688#0 c10_142575674#3 c10_143308546#3 c10_143308546#5 c10_143308546#6 c10_143308546#7 c10_143308546#9 c10_143308546#10 c10_143308546#11"/>
    </vehicle>
    <vehicle id="t_139" type="t__truck" depart="834.00" departLane="best" departPos="random" departSpeed="max">
        <route edges="c00_-172013798#3 c00_172013798#3 c00_38160001#0 c00_38160001#1 c00_-318210367#0 c00_-318210369#1 c00_-318210369#0 c00_-190083608#2 c00_-190083608#1 c00_-172014854#2"/>
    </vehicle>
    <vehicle id="t_140" type="t__truck" depart="840.00" departLane="best" departPos="random" departSpeed="max">
        <route edges="c10_-142575662#0 c10_-142575684#4 c10_-142575684#1 c10_-142575684#0 c10_142575685#0 c10_142575685#1 c10_-142575655#10 c10_-142575655#9 c10_-142575655#8 c10_-142575655#7 c10_-142575655#6 c10_-142575655#5 c10_-142575655#4 c10_-142575655#1 c10_-142575655#0 c10_-142575700#3 c10_-142575700#2 c10_-142575700#1 c10_-142575700#0 c10_-334308447#1 c10_-334308447#0 c10_-448097237"/>
    </vehicle>
    <vehicle id="t_145" type="t__truck" depart="870.00" departLane="best" departPos="random" departSpeed="max">
        <route edges="c11_142575691#0 c11_142575691#1 c11_142575691#2 c11_-142575656#15 c11_-142575656#14 c11_-142575656#12 c11_-142575656#11 c11_-142575656#10 c11_-142575656#9 c11_-142575656#8 c11_-142575656#7"/>
    </vehicle>
    <vehicle id="t_146" type="t__truck" depart="876.00" departLane="best" departPos="random" departSpeed="max">
        <route edges="c11_-142575694#1 c11_-142575694#0 c11_-142575704#4 c11_-142575704#3 c11_-142575704#2 c11_142575656#7"/>
    </vehicle>
    <vehicle id="t_147" type="t__truck" depart="882.00" departLane="best" departPos="random" departSpeed="max">
        <route edges="c00_-143308505#1 c00_-143308505#0 c00_-142575656#12 c00_-142575656#11 c00_-142575656#10 c00_-142575656#9 c00_-142575656#8 c00_-142575656#7 c00_-142575704#1 c00_-142575704#0 c00_143308542#14 c00_143308542#15 c00_143308542#16 c00_31050360#0 c00_318210377#0 c00_318210377#1 c00_143308527#0 c00_143308527#1 c00_143308527#2 c00_143308527#3 c00_143308527#5 c00_143308527#6 c00_143308527#7 c00_-318210394#0"/>
    </vehicle>
    <vehicle id="t_154" type="t__truck" depart="924.00" departLane="best" departPos="random" departSpeed="max">
        <route edges="c01_-142575655#4 c01_142575655#4 c01_142575655#5 c01_142575655#6 c01_142575655#7 c01_142575655#8 c01_142575655#9 c01_142575655#10 c01_-143308521#8 c01_-143308521#7 c01_-143308521#6 c01_-143308521#5 c01_-143308521#4 c01_-143308521#3 c01_-143308521#2 c01_143308562#0 c01_143308562#1 c01_143308562#2 c01_142575690#0 c01_142575690#2 c01_142575690#3 c01_142575690#5 c01_142575690#6"/>
    </vehicle>
    <vehicle id="t_169" type="t__truck" depart="1014.00" departLane="best" departPos="random" departSpeed="max">
        <route edges="c10_-318210373#1 c10_-318210373#0 c10_-142575672#3 c10_-142575672#2 c10_670062912#0 c10_670062912#1 c10_81639675#1 c10_670062909#1 c10_670062908#1 c10_31050360#0 c10_318210377#0 c10_318210377#1 c10_143308527#0"/>
    </vehicle>
    <vehicle id="t_170" type="t__truck" depart="1020.00" departLane="best" departPos="random" departSpeed="max">
        <route edges="c10_318210363#0 c10_-190083618#2 c10_-24214694#5 c10_-24214694#4 c10_-24214694#3 c10_143308590#0 c10_143308542#0 c10_143308542#3 c10_143308542#4 c10_143308542#6 c10_143308542#7 c10_143308542#8 c10_52081075#0 c10_52081075#3 c10_52081075#4 c10_52081075#6 c10_52081075#7 c10_52081075#8 c10_52081075#9 c10_52081075#10 c10_-52081075#10"/>
    </vehicle>
    <vehicle id="t_181" type="t__truck" depart="1086.00" departLane="best" departPos="random" departSpeed="max">
        <route edges="c01_-172014854#0 c01_-147859763#9 c01_-147859763#8 c01_-147859763#7 c01_-147859763#5 c01_-147859763#4 c01_-147859763#3 c01_-147859763#2 c01_-147859763#1 c01_-147859763#0 c01_-142575656#15 c01_-142575656#14 c01_-142575656#12 c01_-142575656#11 c01_-142575656#10 c01_-142575656#9 c01_-142575656#8 c01_-142575656#7 c01_142575704#2 c01_142575704#3 c01_142575704#4 c01_142575704#5 c01_142575704#7 c01_142575704#9 c01_142575704#11 c01_38159999#5"/>
    </vehicle>
    <vehicle id="t_183" type="t__truck" depart="1098.00" departLane="best" departPos="random" departSpeed="max">
        <route edges="c01_320741894#0 c01_320741893 c01_190083608#0 c01_-172014854#2 c01_-172014854#1 c01_-172014854#0 c01_-147859763#9 c01_-147859763#8 c01_-147859763#7 c01_-147859763#5 c01_-147859763#4 c01_-147859763#3 c01_147859763#3"/>
    </vehicle>
    <vehicle id="t_184" type="t__truck" depart="1104.00" departLane="best" departPos="random" departSpeed="max">
        <route edges="c11_143308542#8 c11_143308542#11 c11_143308542#13 c11_143308542#14 c11_143308542#15 c11_143308542#16 c11_143308552#1 c11_143308549#1 c11_143308549#2 c11_143308549#4 c11_52036180#1 c11_52036180#2 c11_52036180#4 c11_-45875465#0 c11_152839428 c11_24152326#0 c11_24152326#1 c11_23925124#0 c11_23925124#1 c11_23925124#2"/>
    </vehicle>
    <vehicle id="t_185" type="t__truck" depart="1110.00" departLane="best" departPos="random" departSpeed="max">
        <route edges="c01_-142575684#4 c01_-142575684#1 c01_-142575684#0 c01_142575685#0 c01_142575685#1 c01_142575693#0 c01_142575693#1 c01_142575693#2 c01_71028774#0 c01_71028774#1 c01_142575659#0"/>
    </vehicle>
    <vehicle id="t_186" type="t__truck" depart="1116.00" departLane="best" departPos="random" departSpeed="max">
        <route edges="c01_314415495#16 c01_-314415495#16 c01_-314415495#15 c01_-314415495#13 c01_-314415495#12 c01_-314415495#11 c01_-314415495#10 c01_-314415495#9 c01_-26991766#12 c01_-26991766#11"/>
    </vehicle>
    <vehicle id="t_187" type="t__truck" depart="1122.00" departLane="best" departPos="random" departSpeed="max">
        <route edges="c11_259433182#0 c11_259433182#1 c11_259433182#2 c11_259433182#3 c11_259433182#4 c11_578659322 c11_313964778#0 c11_313964778#1 c11_313964778#2 c11_-52081075#11 c11_-52081075#10 c11_-52081075#9 c11_-52081075#8 c11_142575655#7 c11_142575655#8 c11_142575655#9 c11_142575655#10 c11_-143308521#8 c11_-143308521#7 c11_-143308521#6 c11_-143308521#5 c11_-143308521#4 c11_142575657#0 c11_142575657#1 c11_142575657#2 c11_142575657#3"/>
    </vehicle>
    <vehicle id="t_189" type="t__truck" depart="1134.00" departLane="best" departPos="random" departSpeed="max">
        <route edges="c11_-38915290#1 c11_-38915290#0 c11_142575655#0 c11_142575655#1 c11_142575655#4 c11_142575655#5 c11_142575655#6 c11_142575655#7 c11_142575655#8 c11_142575655#9 c11_142575655#10 c11_142575686#0 c11_142575686#1 c11_142575686#2 c11_142575686#3 c11_142575686#4 c11_142575684#0 c11_142575684#1 c11_142575684#4 c11_142575662#0"/>
    </vehicle>
    <vehicle id="t_197" type="t__truck" depart="1182.00" departLane="best" departPos="random" departSpeed="max">
        <route edges="c01_118262353#2 c01_-38915290#1 c01_-38915290#0 c01_142575655#0 c01_142575655#1 c01_142575655#4 c01_142575655#5 c01_142575655#6 c01_142575655#7 c01_142575655#8 c01_142575655#9 c01_142575655#10 c01_-143308521#8 c01_-143308521#7 c01_-143308521#6 c01_-143308521#5 c01_-143308521#4 c01_-143308521#3 c01_-143308521#2 c01_143308521#2"/>
    </vehicle>
    <vehicle id="t_202" type="t__truck" depart="1212.00" departLane="best" departPos="random" departSpeed="max">
        <route edges="c10_314415495#7 c10_314415495#8 c10_314415495#9 c10_314415495#10 c10_314415495#11 c10_314415495#12 c10_314415495#13 c10_314415495#15 c10_314415495#16 c10_-314415495#16"/>
    </vehicle>
    <vehicle id="t_212" type="t__truck" depart="1272.00" departLane="best" departPos="random" departSpeed="max">
        <route edges="c00_-142575656#11 c00_142575674#0 c00_142575674#1 c00_142575674#2 c00_142575674#3 c00_52081075#0 c00_52081075#3 c00_52081075#4 c00_52081075#6 c00_52081075#7 c00_52081075#8 c00_-52081075#8"/>
    </vehicle>
    <vehicle id="t_214" type="t__truck" depart="1284.00" departLane="best" departPos="random" departSpeed="max">
        <route edges="c10_670062912#0 c10_670062912#1 c10_81639675#1 c10_670062909#1 c10_670062908#1 c10_670062907#1 c10_670062907#2 c10_670062907#3 c10_670062907#4 c10_670062907#5 c10_670062907#6 c10_-142575674#5 c10_-142575674#2 c10_-142575674#1 c10_-142575674#0 c10_142575656#11 c10_142575656#12 c10_142575656#14 c10_142575656#15"/>
    </vehicle>
    <vehicle id="t_216" type="t__truck" depart="1296.00" departLane="best" departPos="random" departSpeed="max">
        <route edges="c10_-142575661#2 c10_-142575661#1 c10_-142575661#0 c10_-314415495#13 c10_-314415495#12 c10_-314415495#11 c10_-314415495#10 c10_-314415495#9 c10_-26991766#12 c10_-26991766#11 c10_-26991766#10 c10_-26991766#9"/>
    </vehicle>
    <vehicle id="t_218" type="t__truck" depart="1308.00" departLane="best" departPos="random" departSpeed="max">
        <route edges="c10_26991766#12 c10_314415495#9 c10_314415495#10 c10_314415495#11 c10_314415495#12 c10_314415495#13 c10_314415495#15 c10_314415495#16 c10_314415495#18 c10_318210361#0 c10_318210361#1 c10_670062909#1 c10_670062908#1 c10_31050360#0 c10_318210377#0 c10_318210377#1 c10_143308527#0 c10_143308527#1"/>
    </vehicle>
    <vehicle id="t_222" type="t__truck" depart="1332.00" departLane="best" departPos="random" departSpeed="max">
        <route edges="c10_135777010#1 c10_-142575684#5 c10_-142575684#4 c10_-142575684#1 c10_-142575684#0 c10_142575685#0 c10_142575685#1 c10_-143308521#8 c10_-143308521#7 c10_-143308521#6 c10_143308521#6"/>
    </vehicle>
    <vehicle id="t_224" type="t__truck" depart="1344.00" departLane="best" departPos="random" departSpeed="max">
        <route edges="c00_24733698#0 c00_24733698#1 c00_143308546#6 c00_143308546#7 c00_143308546#9 c00_143308546#10 c00_143308546#11 c00_143308546#12 c00_143308546#13 c00_143308546#14 c00_143308546#15 c00_143308542#3 c00_143308542#4 c00_143308542#6 c00_143308542#7 c00_143308542#8 c00_143308542#11 c00_143308542#13 c00_143308542#14 c00_143308542#15 c00_143308542#16 c00_31050360#0"/>
    </vehicle>
    <vehicle id="t_235" type="t__truck" depart="1410.00" departLane="best" departPos="random" departSpeed="max">
        <route edges="c11_-147859763#9 c11_-147859763#8 c11_-147859763#7 c11_-147859763#5 c11_-147859763#4 c11_-147859763#3 c11_-147859763#2 c11_-147859763#1 c11_-147859763#0 c11_-142575656#15 c11_-142575656#14 c11_-142575656#12 c11_-142575656#11 c11_142575674#0 c11_142575674#1 c11_142575674#2 c11_142575674#3 c11_52081075#0 c11_52081075#3 c11_52081075#4 c11_52081075#6 c11_52081075#7 c11_142575655#7 c11_142575655#8 c11_142575655#9 c11_142575655#10 c11_142575686#0 c11_142575686#1 c11_142575686#2 c11_142575686#3 c11_142575686#4 c11_142575684#0 c11_142575684#1 c11_-142575684#1"/>
    </vehicle>
    <vehicle id="t_237" type="t__truck" depart="1422.00" departLane="best" departPos="random" departSpeed="max">
        <route edges="c10_-314415495#8 c10_314415495#8 c10_314415495#9 c10_314415495#10 c10_314415495#11 c10_314415495#12 c10_314415495#13 c10_314415495#15 c10_314415495#16 c10_314415495#18 c10_318210361#0 c10_318210361#1 c10_670062909#1 c10_670062908#1 c10_670062907#1 c10_670062907#2 c10_670062907#3 c10_670062907#4 c10_670062907#5 c10_670062907#6 c10_143308546#3 c10_143308546#5 c10_-24733698#1 c10_71028777#0 c10_71028777#2 c10_71028774#0 c10_-71028774#0"/>
    </vehicle>
    <vehicle id="t_239" type="t__truck" depart="1434.00" departLane="best" departPos="random" departSpeed="max">
        <route edges="c11_142575704#4 c11_142575704#5 c11_142575704#7 c11_-26991766#5 c11_-26991766#3 c11_-26991766#2 c11_-26991766#1 c11_-26991766#0 c11_172013798#2"/>
    </vehicle>
    <vehicle id="t_245" type="t__truck" depart="1470.00" departLane="best" departPos="random" departSpeed="max">
        <route edges="c11_-143308527#1 c11_-143308527#0 c11_318210378#2 c11_318210378#3 c11_-142575710#5 c11_-142575710#4 c11_-142575710#3 c11_-142575710#2 c11_143308493#0 c11_143308493#1"/>
    </vehicle>
    <vehicle id="t_247" type="t__truck" depart="1482.00" departLane="best" departPos="random" departSpeed="max">
        <route edges="c10_-142575704#7 c10_-142575704#5 c10_-142575704#4 c10_-142575704#3 c10_-142575704#2 c10_142575656#7 c10_142575656#8 c10_142575656#9 c10_142575656#10 c10_142575674#0 c10_142575674#1 c10_142575674#2 c10_142575674#3 c10_52081075#0 c10_52081075#3 c10_52081075#4 c10_52081075#6 c10_52081075#7 c10_142575655#7 c10_142575655#8 c10_142575655#9 c10_142575655#10 c10_142575686#0 c10_142575686#1 c10_142575686#2 c10_142575686#3 c10_142575686#4 c10_142575684#0 c10_142575684#1 c10_142575684#4 c10_142575662#0 c10_142575662#1"/>
    </vehicle>
    <vehicle id="t_256" type="t__truck" depart="1536.00" departLane="best" departPos="random" departSpeed="max">
        <route edges="c00_-142575695#0 c00_318210373#0 c00_318210373#1 c00_-142575661#1 c00_-142575661#0 c00_-314415495#13 c00_-314415495#12 c00_-314415495#11 c00_-314415495#10 c00_-314415495#9 c00_-314415495#8"/>
    </vehicle>
    <vehicle id="t_257" type="t__truck" depart="1542.00" departLane="best" departPos="random" departSpeed="max">
        <route edges="c10_147859763#4 c10_-147859763#4 c10_-147859763#3 c10_-147859763#2 c10_-147859763#1 c10_-147859763#0 c10_-142575656#15 c10_-142575656#14 c10_-142575656#12 c10_-142575656#11 c10_142575674#0 c10_142575674#1 c10_142575674#2 c10_142575674#3 c10_143308546#3 c10_143308546#5 c10_-24733698#1 c10_71028777#0 c10_71028777#2 c10_71028774#0 c10_71028774#1 c10_142575659#0"/>
    </vehicle>
    <vehicle id="t_263" type="t__truck" depart="1578.00" departLane="best" departPos="random" departSpeed="max">
        <route edges="c11_142575655#6 c11_-52081075#7 c11_-52081075#6 c11_-52081075#4 c11_-52081075#3 c11_-52081075#2 c11_143308542#11 c11_143308542#13 c11_142575704#0 c11_142575704#1 c11_142575704#2 c11_142575704#3 c11_142575704#4 c11_142575704#5 c11_142575704#7 c11_142575704#9 c11_142575704#11 c11_-142575704#11"/>
    </vehicle>
    <vehicle id="t_265" type="t__truck" depart="1590.00" departLane="best" departPos="random" departSpeed="max">
        <route edges="c11_26991766#11 c11_26991766#12 c11_314415495#9 c11_314415495#10 c11_314415495#11 c11_314415495#12 c11_314415495#13 c11_314415495#15 c11_314415495#16 c11_314415495#18 c11_318210361#0 c11_318210361#1 c11_143308549#1 c11_143308549#2 c11_143308549#4 c11_52036180#1 c11_52036180#2 c11_52036180#4 c11_-45875465#0 c11_152839428 c11_24152326#0 c11_24152326#1 c11_23925124#0 c11_-23925124#0"/>
    </vehicle>
    <vehicle id="t_267" type="t__truck" depart="1602.00" departLane="best" departPos="random" departSpeed="max">
        <route edges="c00_142575661#0 c00_-142575661#0 c00_314415495#15 c00_314415495#16 c00_314415495#18 c00_318210361#0 c00_318210361#1 c00_670062909#1 c00_670062908#1 c00_31050360#0 c00_318210377#0 c00_318210377#1 c00_318210378#2 c00_318210378#3 c00_318210378#4 c00_318210378#5 c00_142575655#0 c00_142575655#1 c00_180789857#1 c00_180789857#2 c00_180789857#3 c00_180789857#4 c00_257072321#8 c00_257072321#9 c00_257072321#10 c00_257072321#11"/>
    </vehicle>
    <vehicle id="t_270" type="t__truck" depart="1620.00" departLane="best" departPos="random" departSpeed="max">
        <route edges="c00_142575677#1 c00_142575677#2 c00_142575677#3 c00_-142575710#5 c00_-142575710#4 c00_-142575710#3 c00_-142575710#2 c00_142575687#0 c00_142575687#1 c00_142575655#4 c00_142575655#5 c00_142575655#6 c00_142575655#7 c00_142575655#8 c00_142575655#9 c00_142575655#10 c00_-143308521#8 c00_-143308521#7 c00_-143308521#6 c00_-143308521#5 c00_-143308521#4"/>
    </vehicle>
    <vehicle id="t_271" type="t__truck" depart="1626.00" departLane="best" departPos="random" departSpeed="max">
        <route edges="c11_142575693#2 c11_142575693#3 c11_142575693#4 c11_142575693#5 c11_143308546#13 c11_143308546#14 c11_143308546#15 c11_143308542#3 c11_143308542#4 c11_143308542#6 c11_143308542#7 c11_143308542#8 c11_143308542#11 c11_143308542#13 c11_143308542#14 c11_143308542#15 c11_143308542#16 c11_143308552#1 c11_143308549#1 c11_143308549#2 c11_143308549#4 c11_142575672#0 c11_142575672#3 c11_318210373#0 c11_318210373#1 c11_142575661#2 c11_142575661#3"/>
    </vehicle>
    <vehicle id="t_274" type="t__truck" depart="1644.00" departLane="best" departPos="random" departSpeed="max">