<?xml version="1.0" encoding="UTF-8"?>

<!-- generated on 2026-03-25 23:32:04.308384 by randomTrips.py UNKNOWN
<configuration>
    <net-file value="/home/vivek/research/NIT hackathon/final_year_project/sumo/networks/city_large.net.xml"/>
    <route-file value="/home/vivek/research/NIT hackathon/final_year_project/sumo/routes/city_large_passenger.rou.xml"/>
    <prefix value="p_"/>
    <trip-attributes value="departLane=&quot;best&quot; departSpeed=&quot;max&quot; departPos=&quot;random&quot;"/>
    <fringe-factor value="10"/>
    <seed value="101"/>
    <period value="1.2 0.8 1.6"/>
</configuration>
-->

<!-- generated on 2026-03-25 23:32:03 by Eclipse SUMO duarouter Version 1.18.0
<configuration xmlns:xsi="http://www.w3.org/2001/XMLSchema-instance" xsi:noNamespaceSchemaLocation="http://sumo.dlr.de/xsd/duarouterConfiguration.xsd">

    <input>
        <net-file value="/home/vivek/research/NIT hackathon/final_year_project/sumo/networks/city_large.net.xml"/>
        <route-files value="trips.trips.xml"/>
    </input>

    <output>
        <output-file value="/home/vivek/research/NIT hackathon/final_year_project/sumo/routes/city_large_passenger.rou.xml"/>
        <alternatives-output value="NUL"/>
    </output>

    <time>
        <begin value="0.0"/>
        <end value="3600.0"/>
    </time>

    <report>
        <no-warnings value="true"/>
        <ignore-errors value="true"/>
        <no-step-log value="true"/>
    </report>

</configuration>
-->

<routes xmlns:xsi="http://www.w3.org/2001/XMLSchema-instance" xsi:noNamespaceSchemaLocation="http://sumo.dlr.de/xsd/routes_file.xsd">
    <vehicle id="p_3" depart="3.60" departLane="best" departPos="random" departSpeed="max">
        <route edges="c00_320741893 c00_190083608#0 c00_-172014854#2 c00_-172014854#1 c00_-172014854#0 c00_-147859763#9 c00_-147859763#8 c00_-147859763#7 c00_-147859763#5 c00_-147859763#4 c00_-147859763#3 c00_-147859763#2 c00_-147859763#1 c00_-147859763#0 c00_-142575656#15 c00_-142575656#14 c00_-142575656#12 c00_-142575656#11 c00_-142575656#10 c00_-142575656#9 c00_-142575656#8 c00_-142575656#7 c00_-142575704#1 c00_-142575704#0 c00_143308542#14 c00_143308542#15 c00_143308542#16 c00_143308552#1 c00_143308549#1 c00_143308549#2 c00_143308549#4 c00_52036180#1 c00_52036180#2 c00_52036180#4 c00_40191607#1"/>
    </vehicle>
    <vehicle id="p_6" depart="7.20" departLane="best" departPos="random" departSpeed="max">
        <route edges="c00_-314415495#4 c00_314415495#4 c00_314415495#5 c00_314415495#6 c00_314415495#7 c00_314415495#8 c00_314415495#9 c00_314415495#10 c00_314415495#11 c00_314415495#12 c00_314415495#13 c00_314415495#15 c00_314415495#16 c00_314415495#18 c00_318210361#0 c00_318210361#1 c00_670062909#1 c00_670062908#1 c00_670062907#1 c00_670062907#2 c00_670062907#3 c00_670062907#4 c00_670062907#5 c00_670062907#6 c00_143308546#3 c00_143308546#5 c00_-24733698#1 c00_71028777#0 c00_71028777#2 c00_142575692#3 c00_142575692#5 c00_142575692#6 c00_142575686#0 c00_142575686#1 c00_142575686#2 c00_142575686#3 c00_142575686#4 c00_142575684#0 c00_142575684#1 c00_257072322#1 c00_257072322#2"/>
    </vehicle>
    <vehicle id="p_8" depart="9.60" departLane="best" departPos="random" departSpeed="max">
        <route edges="c01_142575674#2 c01_142575674#3 c01_143308542#11 c01_143308542#13 c01_143308542#14 c01_143308542#15 c01_143308542#16 c01_143308552#1 c01_143308549#1 c01_143308549#2 c01_143308549#4 c01_52036180#1 c01_52036180#2 c01_52036180#4 c01_40191607#1"/>
    </vehicle>
    <vehicle id="p_11" depart="13.20" departLane="best" departPos="random" departSpeed="max">
        <route edges="c01_190083616 c01_318210395 c01_320741894#0 c01_320741893 c01_190083608#0 c01_-172014854#2 c01_-172014854#1 c01_-172014854#0 c01_-147859763#9 c01_-147859763#8 c01_-147859763#7 c01_-147859763#5 c01_-147859763#4 c01_-147859763#3 c01_-147859763#2 c01_-147859763#1"/>
    </vehicle>
    <vehicle id="p_13" depart="15.60" departLane="best" departPos="random" departSpeed="max">
        <route edges="c10_190083616 c10_318210395 c10_-190083618#2 c10_-24214694#5 c10_-24214694#4 c10_-24214694#3 c10_143308590#0 c10_143308542#0 c10_143308542#3 c10_143308542#4 c10_143308542#6 c10_143308542#7"/>
    </vehicle>
    <vehicle id="p_21" depart="25.20" departLane="best" departPos="random" departSpeed="max">
        <route edges="c00_143308542#16 c00_670062907#1 c00_670062907#2 c00_670062907#3 c00_670062907#4 c00_670062907#5 c00_670062907#6 c00_143308542#11 c00_143308542#13 c00_142575704#0 c00_-142575704#0"/>
    </vehicle>
    <vehicle id="p_22" depart="26.40" departLane="best" departPos="random" departSpeed="max">
        <route edges="c00_190083616 c00_-190083616"/>
    </vehicle>
    <vehicle id="p_28" depart="33.60" departLane="best" departPos="random" departSpeed="max">
        <route edges="c10_257072321#5 c10_257072321#6 c10_257072321#7 c10_180789857#5 c10_180789857#6 c10_180789857#7"/>
    </vehicle>
    <vehicle id="p_29" depart="34.80" departLane="best" departPos="random" departSpeed="max">
        <route edges="c00_-142575655#4 c00_-142575687#1 c00_-142575687#0 c00_-142575710#0 c00_-52081075#4 c00_-52081075#3 c00_-52081075#2 c00_-142575674#5 c00_142575688#0 c00_142575688#1 c00_142575688#2 c00_142575688#3 c00_142575691#2 c00_147859766 c00_147859765#1 c00_147859765#2 c00_147859765#4 c00_147859765#5 c00_172013798#0 c00_172013798#2 c00_172013798#3 c00_38160001#0 c00_38160001#1 c00_318210367#1 c00_318210364 c00_-318210371#0"/>
    </vehicle>
    <vehicle id="p_31" depart="37.20" departLane="best" departPos="random" departSpeed="max">
        <route edges="c11_26991766#1 c11_26991766#2 c11_26991766#3 c11_26991766#5 c11_-142575704#7 c11_-142575704#5 c11_-142575704#4 c11_-142575704#3 c11_-142575704#2 c11_142575656#7 c11_142575656#8 c11_142575656#9 c11_142575656#10 c11_142575674#0 c11_142575674#1 c11_142575674#2"/>
    </vehicle>
    <vehicle id="p_34" depart="40.80" departLane="best" departPos="random" departSpeed="max">
        <route edges="c11_-23925119#1 c11_23925119#1 c11_40191606#2 c11_414563781 c11_206889086#1 c11_541676219 c11_318210389#0 c11_670062912#0 c11_670062912#1 c11_81639675#1 c11_670062909#1 c11_670062908#1 c11_670062907#1 c11_670062907#2 c11_670062907#3 c11_670062907#4 c11_670062907#5 c11_670062907#6 c11_-142575674#5 c11_-142575674#2 c11_-142575674#1 c11_-142575674#0 c11_142575656#11 c11_142575656#12 c11_143308505#0 c11_143308505#1 c11_143308505#2 c11_-143308505#2"/>
    </vehicle>
    <vehicle id="p_35" depart="42.00" departLane="best" departPos="random" departSpeed="max">
        <route edges="c00_142575704#7 c00_-26991766#5 c00_-26991766#3 c00_-26991766#2 c00_-26991766#1 c00_-26991766#0 c00_172013798#2"/>
    </vehicle>
    <vehicle id="p_39" depart="46.80" departLane="best" departPos="random" departSpeed="max">
        <route edges="c11_318210356 c11_206889086#1 c11_541676219 c11_318210389#0 c11_670062912#0 c11_670062912#1 c11_81639675#1 c11_670062909#1 c11_670062908#1 c11_670062907#1 c11_670062907#2 c11_670062907#3 c11_670062907#4 c11_670062907#5 c11_670062907#6 c11_143308546#3 c11_143308546#5 c11_143308546#6 c11_143308546#7 c11_143308546#9 c11_143308546#10 c11_143308546#11 c11_143308546#12 c11_143308546#13 c11_143308546#14 c11_143308546#15 c11_670062902#2 c11_670062902#3 c11_143308532#0 c11_143308532#2 c11_-143308562#4 c11_142575690#0"/>
    </vehicle>
    <vehicle id="p_54" depart="64.80" departLane="best" departPos="random" departSpeed="max">
        <route edges="c10_-147859765#1 c10_-147859765#0 c10_-142575656#15 c10_-142575656#14 c10_-142575656#12 c10_-142575656#11 c10_-142575656#10 c10_-142575656#9 c10_-142575656#8 c10_-142575656#7 c10_142575704#2 c10_142575704#3 c10_142575704#4 c10_142575704#5 c10_142575704#7 c10_142575704#9 c10_142575704#11 c10_142575704#12 c10_-142575704#12"/>
    </vehicle>
    <vehicle id="p_58" depart="69.60" departLane="best" departPos="random" departSpeed="max">
        <route edges="c00_-152839428 c00_45875465#0 c00_40191607#1"/>
    </vehicle>
    <vehicle id="p_59" depart="70.80" departLane="best" departPos="random" departSpeed="max">
        <route edges="c00_-26991766#7 c00_-142575704#7 c00_-142575704#5 c00_-142575704#4 c00_-142575704#3 c00_-142575704#2 c00_142575656#7 c00_142575656#8 c00_142575656#9 c00_142575656#10 c00_142575674#0 c00_142575674#1 c00_142575674#2 c00_142575674#3 c00_52081075#0 c00_52081075#3 c00_52081075#4 c00_142575710#0"/>
    </vehicle>
    <vehicle id="p_61" depart="73.20" departLane="best" departPos="random" departSpeed="max">
        <route edges="c01_142575677#2 c01_142575677#3 c01_-318210378#3 c01_-318210378#2 c01_-318210378#0 c01_-318210377#0 c01_-31050360#2 c01_143308552#1 c01_-318210361#3 c01_-318210361#0 c01_-314415495#18 c01_-314415495#16 c01_-314415495#15 c01_-314415495#13 c01_-314415495#12 c01_-314415495#11 c01_-314415495#10 c01_-314415495#9 c01_-26991766#12 c01_-26991766#11 c01_26991766#11"/>
    </vehicle>
    <vehicle id="p_62" depart="74.40" departLane="best" departPos="random" departSpeed="max">
        <route edges="c10_147859763#8 c10_-147859763#8 c10_-147859763#7 c10_-147859763#5 c10_-147859763#4 c10_-147859763#3 c10_-147859763#2 c10_-147859763#1 c10_-147859763#0 c10_147859766 c10_147859765#1"/>
    </vehicle>
    <vehicle id="p_68" depart="81.60" departLane="best" departPos="random" departSpeed="max">
        <route edges="c01_23925119#0 c01_23925119#1 c01_40191606#2 c01_414563781 c01_206889086#1 c01_541676219 c01_318210389#0 c01_670062912#0 c01_670062912#1 c01_81639675#1 c01_-318210361#3 c01_-318210361#0 c01_-314415495#18 c01_-314415495#16 c01_-314415495#15 c01_-314415495#13 c01_-314415495#12 c01_-314415495#11 c01_-314415495#10 c01_-314415495#9 c01_314415495#9"/>
    </vehicle>
    <vehicle id="p_77" depart="92.40" departLane="best" departPos="random" departSpeed="max">
        <route edges="c01_314415495#0 c01_314415495#1 c01_314415495#2 c01_314415495#3 c01_314415495#4 c01_314415495#5 c01_314415495#6 c01_314415495#7 c01_314415495#8 c01_314415495#9 c01_314415495#10 c01_314415495#11 c01_314415495#12 c01_314415495#13 c01_314415495#15 c01_314415495#16 c01_314415495#18 c01_318210361#0 c01_318210361#1 c01_670062909#1 c01_670062908#1 c01_670062907#1 c01_670062907#2 c01_670062907#3 c01_670062907#4 c01_670062907#5 c01_670062907#6 c01_143308546#3 c01_143308546#5 c01_-24733698#1 c01_71028777#0 c01_71028777#2 c01_142575692#3 c01_142575692#5 c01_142575692#6 c01_142575686#0 c01_142575686#1 c01_142575686#2 c01_142575686#3 c01_142575686#4 c01_142575684#0 c01_142575684#1 c01_-142575684#1"/>
    </vehicle>
    <vehicle id="p_88" depart="105.60" departLane="best" departPos="random" departSpeed="max">
        <route edges="c00_135777010#0 c00_-142575657#4 c00_-142575657#3 c00_-142575657#2 c00_-142575657#1 c00_-142575657#0 c00_143308521#4 c00_143308521#5 c00_143308521#6 c00_143308521#7 c00_143308521#8 c00_-142575655#10 c00_-142575655#9 c00_-142575655#8 c00_-142575655#7 c00_-52081075#7 c00_-52081075#6 c00_-52081075#4 c00_-52081075#3 c00_-52081075#2 c00_52081075#0"/>
    </vehicle>
    <vehicle id="p_89" depart="106.80" departLane="best" departPos="random" departSpeed="max">
        <route edges="c00_257072322#1 c00_257072322#2 c00_412992935#0 c00_412992935#1 c00_412992935#2 c00_-52081075#11 c00_-52081075#10 c00_-52081075#9 c00_-52081075#8 c00_-142575655#6 c00_-142575655#5 c00_-142575655#4 c00_-142575655#1 c00_-142575655#0 c00_-318210378#5 c00_-318210378#4 c00_-318210378#3 c00_-318210378#2 c00_143308527#0 c00_143308527#1 c00_143308527#2 c00_143308527#3"/>
    </vehicle>
    <vehicle id="p_90" depart="108.00" departLane="best" departPos="random" departSpeed="max">
        <route edges="c10_48858193#0 c10_48858193#2 c10_-578917008 c10_-318210371#2 c10_-318210371#1 c10_-318210371#0 c10_-318210362 c10_-318210367#0 c10_-318210369#1 c10_-318210369#0 c10_-190083608#2 c10_-190083608#1 c10_-190083608#0 c10_-320741893"/>
    </vehicle>
    <vehicle id="p_101" depart="121.20" departLane="best" departPos="random" departSpeed="max">
        <route edges="c10_142575661#1 c10_-318210373#1 c10_-318210373#0 c10_-142575672#3 c10_-142575672#2 c10_52080655#0 c10_318210394#0 c10_318210394#1 c10_334308447#1 c10_334308447#2"/>
    </vehicle>
    <vehicle id="p_104" depart="124.80" departLane="best" departPos="random" departSpeed="max">
        <route edges="c00_142575695#0 c00_-142575695#0 c00_-142575672#3 c00_-142575672#2 c00_670062912#0 c00_670062912#1 c00_81639675#1 c00_670062909#1 c00_670062908#1 c00_670062907#1 c00_670062907#2 c00_670062907#3 c00_670062907#4 c00_670062907#5 c00_670062907#6 c00_-142575674#5 c00_-142575674#2 c00_-142575674#1 c00_-142575674#0 c00_142575656#11 c00_142575656#12 c00_142575656#14 c00_142575656#15 c00_582467484#1 c00_147859763#1 c00_147859763#2 c00_147859763#3 c00_147859763#4 c00_147859763#5 c00_147859763#7 c00_147859763#8 c00_147859763#9 c00_172014854#0 c00_172014854#1 c00_172014854#2 c00_-172014854#2"/>
    </vehicle>
    <vehicle id="p_110" depart="132.00" departLane="best" departPos="random" departSpeed="max">
        <route edges="c11_153021549 c11_40191606#0 c11_40191606#2 c11_414563781 c11_206889086#1 c11_541676219 c11_318210389#0 c11_670062912#0 c11_670062912#1 c11_81639675#1 c11_-318210361#3 c11_-318210361#0 c11_-314415495#18 c11_-314415495#16 c11_142575656#0 c11_-142575656#0"/>
    </vehicle>
    <vehicle id="p_116" depart="139.20" departLane="best" departPos="random" departSpeed="max">
        <route edges="c11_190083608#0 c11_-172014854#2 c11_-172014854#1 c11_-172014854#0 c11_-147859763#9 c11_-147859763#8 c11_-147859763#7 c11_-38507369#3 c11_-38507369#0 c11_-142575688#12 c11_-142575688#11 c11_-142575688#8 c11_142575688#8"/>
    </vehicle>
    <vehicle id="p_117" depart="140.40" departLane="best" departPos="random" departSpeed="max">
        <route edges="c11_-142575656#1 c11_142575656#1 c11_142575656#3 c11_142575656#5 c11_142575656#6 c11_142575656#7 c11_142575656#8 c11_142575656#9 c11_142575656#10 c11_142575656#11 c11_142575656#12 c11_-142575656#12"/>
    </vehicle>
    <vehicle id="p_124" depart="148.80" departLane="best" departPos="random" departSpeed="max">
        <route edges="c11_-143308521#3 c11_-143308521#2 c11_143308562#0 c11_143308562#1 c11_143308562#2 c11_143308562#4 c11_46039050#4 c11_143308587#0 c11_24214694#3 c11_24214694#4"/>
    </vehicle>
    <vehicle id="p_131" depart="157.20" departLane="best" departPos="random" departSpeed="max">
        <route edges="c00_-172013798#2 c00_-172013798#0 c00_-147859765#5 c00_-147859765#4 c00_-147859765#2 c00_-147859765#1 c00_-147859765#0 c00_-142575691#2 c00_-142575688#3 c00_-142575688#2 c00_-142575688#1 c00_-142575688#0 c00_142575674#3 c00_52081075#0 c00_52081075#3 c00_52081075#4 c00_52081075#6 c00_52081075#7 c00_-142575655#6 c00_-142575655#5 c00_-142575655#4 c00_-142575655#1 c00_-142575655#0"/>
    </vehicle>
    <vehicle id="p_133" depart="159.60" departLane="best" departPos="random" departSpeed="max">
        <route edges="c11_-52081075#11 c11_-52081075#10 c11_-52081075#9 c11_-52081075#8 c11_142575655#7 c11_142575655#8 c11_142575655#9 c11_142575655#10 c11_142575693#0 c11_142575693#1 c11_142575693#2 c11_142575693#3 c11_142575693#4 c11_142575693#5 c11_143308546#13 c11_143308546#14 c11_143308546#15"/>
    </vehicle>
    <vehicle id="p_137" depart="164.40" departLane="best" departPos="random" departSpeed="max">
        <route edges="c10_46039050#4 c10_143308587#0 c10_24214694#3 c10_24214694#4 c10_24214694#5 c10_190083618#0 c10_320741894#0 c10_320741893 c10_190083608#0 c10_190083608#1"/>
    </vehicle>
    <vehicle id="p_138" depart="165.60" departLane="best" departPos="random" departSpeed="max">
        <route edges="c01_-142575704#7 c01_-142575704#5 c01_142575704#5"/>
    </vehicle>
    <vehicle id="p_145" depart="174.00" departLane="best" departPos="random" departSpeed="max">
        <route edges="c10_142575688#3 c10_142575691#2 c10_147859766 c10_147859765#1 c10_147859765#2 c10_147859765#4 c10_147859765#5 c10_172013798#0 c10_172013798#2 c10_172013798#3 c10_38160001#0 c10_38160001#1 c10_318210367#1 c10_318210364 c10_318210371#1 c10_318210371#2 c10_578917008 c10_142575667#0"/>
    </vehicle>
    <vehicle id="p_147" depart="176.40" departLane="best" departPos="random" departSpeed="max">
        <route edges="c00_70130339#0 c00_70130339#1 c00_70130339#2 c00_118262353#0 c00_118262353#1 c00_118262353#2 c00_-38915290#1 c00_-38915290#0 c00_-318210378#5 c00_-318210378#4 c00_-318210378#3 c00_-318210378#2 c00_-318210378#0 c00_-318210377#0 c00_-31050360#2 c00_670062907#1 c00_670062907#2 c00_670062907#3 c00_670062907#4 c00_670062907#5 c00_670062907#6 c00_-142575674#5 c00_142575688#0 c00_142575688#1 c00_142575688#2 c00_142575688#3 c00_-142575691#1 c00_-142575691#0 c00_142575691#0"/>
    </vehicle>
    <vehicle id="p_152" depart="182.40" departLane="best" departPos="random" departSpeed="max">
        <route edges="c11_-26991766#1 c11_26991766#1 c11_26991766#2 c11_26991766#3 c11_26991766#5 c11_26991766#7 c11_26991766#8 c11_26991766#9 c11_26991766#10 c11_26991766#11 c11_26991766#12 c11_-314415495#8 c11_-314415495#7 c11_-314415495#6 c11_-314415495#5 c11_-314415495#4 c11_-314415495#3 c11_-314415495#2"/>
    </vehicle>
    <vehicle id="p_153" depart="183.60" departLane="best" departPos="random" departSpeed="max">
        <route edges="c00_147859763#4 c00_-147859763#4 c00_-147859763#3 c00_-147859763#2 c00_-147859763#1 c00_-147859763#0 c00_-142575656#15 c00_-142575656#14 c00_-142575656#12 c00_-142575656#11 c00_-142575656#10 c00_-142575656#9 c00_-142575656#8 c00_-142575656#7 c00_-142575656#6 c00_-142575656#5 c00_-142575656#3 c00_-142575656#1 c00_-142575656#0 c00_-314415495#15 c00_-314415495#13 c00_-314415495#12 c00_-314415495#11 c00_-314415495#10 c00_-314415495#9 c00_-314415495#8 c00_-314415495#7 c00_-314415495#6 c00_-314415495#5 c00_-314415495#4 c00_-314415495#3 c00_-314415495#2 c00_-314415495#1 c00_-314415495#0"/>
    </vehicle>
    <vehicle id="p_159" depart="190.80" departLane="best" departPos="random" departSpeed="max">
        <route edges="c10_670062908#1 c10_143308552#1 c10_-318210361#3 c10_-318210361#0 c10_-314415495#18 c10_-314415495#16 c10_142575656#0 c10_142575656#1 c10_142575656#3 c10_142575656#5 c10_142575656#6 c10_142575704#2 c10_142575704#3 c10_142575704#4 c10_142575704#5 c10_142575704#7 c10_142575704#9 c10_142575704#11 c10_142575704#12 c10_142575704#13 c10_142575704#14 c10_142575704#15 c10_142575704#16 c10_142575704#17 c10_142575704#18 c10_-318210371#1"/>
    </vehicle>
    <vehicle id="p_175" depart="210.00" departLane="best" departPos="random" departSpeed="max">
        <route edges="c00_143308542#7 c00_143308542#8 c00_143308542#11 c00_143308542#13 c00_143308542#14 c00_143308542#15 c00_143308542#16 c00_31050360#0 c00_318210377#0 c00_318210377#1 c00_318210378#2 c00_318210378#3 c00_318210378#4 c00_318210378#5 c00_38915290#0 c00_38915290#1 c00_8025704#0 c00_8025704#1 c00_-46424277 c00_46424277"/>
    </vehicle>
    <vehicle id="p_183" depart="219.60" departLane="best" departPos="random" departSpeed="max">
        <route edges="c01_-143308527#1 c01_-143308527#0 c01_-318210378#0 c01_-318210377#0 c01_-31050360#2 c01_143308552#1 c01_-318210361#3 c01_-318210361#0 c01_-314415495#18 c01_-314415495#16 c01_142575656#0 c01_142575656#1 c01_142575656#3 c01_142575656#5 c01_142575656#6 c01_142575704#2 c01_142575704#3 c01_142575704#4 c01_142575704#5 c01_142575704#7 c01_142575704#9 c01_142575704#11 c01_142575704#12 c01_142575704#13 c01_-142575704#13"/>
    </vehicle>
    <vehicle id="p_184" depart="220.80" departLane="best" departPos="random" departSpeed="max">
        <route edges="c11_24733698#0 c11_24733698#1 c11_143308546#6 c11_143308546#7 c11_143308546#9 c11_143308546#10 c11_143308546#11 c11_143308546#12 c11_143308546#13 c11_143308546#14 c11_143308546#15 c11_143308542#3 c11_143308542#4 c11_143308542#6 c11_143308542#7 c11_143308542#8 c11_143308542#11 c11_143308542#13 c11_143308542#14 c11_143308542#15 c11_143308542#16 c11_143308552#1 c11_143308549#1 c11_143308549#2 c11_143308549#4 c11_52036180#1 c11_52036180#2 c11_52036180#4 c11_72230304#1 c11_461514282#0 c11_461514282#1"/>
    </vehicle>
    <vehicle id="p_188" depart="225.60" departLane="best" departPos="random" departSpeed="max">
        <route edges="c11_142575704#12 c11_142575704#13 c11_142575704#14 c11_142575704#15 c11_142575704#16 c11_142575704#17 c11_142575704#18 c11_318210371#2 c11_578917008 c11_142575667#0"/>
    </vehicle>
    <vehicle id="p_189" depart="226.80" departLane="best" departPos="random" departSpeed="max">
        <route edges="c01_-135777010#3 c01_-135777010#2 c01_-142575684#5 c01_-142575684#4 c01_-142575684#1 c01_-142575684#0 c01_142575685#0 c01_142575685#1 c01_-142575655#10 c01_-142575655#9 c01_-142575655#8 c01_-142575655#7 c01_52081075#8 c01_52081075#9 c01_52081075#10 c01_52081075#11 c01_259466417#0 c01_259466417#1"/>
    </vehicle>
    <vehicle id="p_194" depart="232.80" departLane="best" departPos="random" departSpeed="max">
        <route edges="c00_180789857#9 c00_180789857#10 c00_180789857#11 c00_180789857#12 c00_180789857#13 c00_180789857#14 c00_180789857#15 c00_52081116#11 c00_70130339#2 c00_118262353#0 c00_118262353#1 c00_118262353#2 c00_-38915290#1 c00_-38915290#0 c00_142575655#0 c00_142575655#1 c00_142575655#4 c00_142575655#5 c00_142575655#6 c00_142575655#7 c00_142575655#8 c00_142575655#9 c00_142575655#10 c00_142575686#0 c00_142575686#1 c00_142575686#2 c00_142575686#3 c00_142575686#4 c00_142575684#0 c00_142575684#1 c00_142575684#4 c00_142575684#5"/>
    </vehicle>
    <vehicle id="p_197" depart="236.40" departLane="best" departPos="random" departSpeed="max">
        <route edges="c10_142575673#0 c10_142575673#1 c10_143308562#4 c10_46039050#4 c10_143308542#0 c10_143308542#3 c10_143308542#4 c10_143308542#6 c10_143308542#7 c10_143308542#8 c10_143308542#11 c10_143308542#13 c10_143308542#14 c10_143308542#15 c10_143308542#16 c10_143308552#1 c10_143308549#1 c10_143308549#2 c10_143308549#4 c10_52036180#1 c10_52036180#2 c10_52036180#4 c10_-45875465#0 c10_152839428 c10_24152326#0 c10_24152326#1 c10_23925124#0"/>
    </vehicle>
    <vehicle id="p_199" depart="238.80" departLane="best" departPos="random" departSpeed="max">
        <route edges="c11_142575661#0 c11_-142575661#0 c11_-314415495#13 c11_-314415495#12 c11_-314415495#11 c11_-314415495#10 c11_-314415495#9 c11_-26991766#12 c11_-26991766#11"/>
    </vehicle>
    <vehicle id="p_203" depart="243.60" departLane="best" departPos="random" departSpeed="max">
        <route edges="c11_142575677#0 c11_142575677#1 c11_142575677#2 c11_142575677#3 c11_-142575710#5 c11_-142575710#4 c11_-142575710#3 c11_-142575710#2 c11_142575687#0 c11_142575687#1 c11_142575655#4 c11_142575655#5 c11_142575655#6 c11_142575655#7 c11_142575655#8 c11_142575655#9 c11_142575655#10 c11_142575686#0 c11_142575686#1 c11_142575686#2 c11_142575686#3 c11_142575686#4 c11_142575684#0 c11_142575684#1 c11_142575684#4 c11_142575684#5 c11_135777010#2 c11_135777010#3 c11_135777010#4 c11_135777010#5"/>
    </vehicle>
    <vehicle id="p_209" depart="250.80" departLane="best" departPos="random" departSpeed="max">
        <route edges="c01_-314415495#5 c01_314415495#5 c01_314415495#6 c01_314415495#7 c01_314415495#8 c01_314415495#9 c01_314415495#10 c01_314415495#11 c01_314415495#12 c01_314415495#13 c01_314415495#15 c01_314415495#16 c01_314415495#18 c01_318210361#0 c01_318210361#1 c01_670062909#1 c01_670062908#1 c01_670062907#1 c01_670062907#2 c01_670062907#3 c01_670062907#4 c01_670062907#5 c01_670062907#6 c01_143308546#3 c01_143308546#5 c01_143308546#6 c01_143308546#7 c01_143308546#9 c01_143308546#10 c01_143308546#11 c01_143308546#12 c01_143308546#13 c01_143308546#14 c01_143308546#15 c01_670062902#2 c01_670062902#3 c01_143308532#0 c01_143308532#2 c01_-143308562#4 c01_143308562#4"/>
    </vehicle>
    <vehicle id="p_216" depart="259.20" departLane="best" departPos="random" departSpeed="max">
        <route edges="c01_-147859763#0 c01_-142575656#15 c01_-142575656#14 c01_-142575656#12 c01_-142575656#11 c01_142575674#0 c01_142575674#1 c01_142575674#2 c01_142575674#3 c01_52081075#0 c01_52081075#3 c01_52081075#4 c01_52081075#6 c01_52081075#7 c01_142575655#7 c01_142575655#8 c01_142575655#9 c01_142575655#10 c01_142575686#0 c01_142575686#1 c01_142575686#2 c01_142575686#3 c01_142575686#4 c01_142575684#0 c01_142575684#1 c01_142575684#4 c01_142575684#5 c01_-142575684#5"/>
    </vehicle>
    <vehicle id="p_224" depart="268.80" departLane="best" departPos="random" departSpeed="max">
        <route edges="c01_-24214694#4 c01_-24214694#3 c01_143308590#0 c01_143308542#0 c01_143308542#3 c01_143308542#4 c01_143308542#6 c01_143308542#7 c01_143308542#8 c01_143308542#11 c01_143308542#13 c01_143308542#14 c01_143308542#15 c01_143308542#16 c01_31050360#0 c01_318210377#0 c01_318210377#1 c01_318210378#2 c01_318210378#3 c01_318210378#4 c01_318210378#5 c01_-142575700#3 c01_-142575700#2 c01_-142575700#1 c01_-142575700#0"/>
    </vehicle>
    <vehicle id="p_234" depart="280.80" departLane="best" departPos="random" departSpeed="max">
        <route edges="c00_-142575672#3 c00_-142575672#2 c00_52036180#1 c00_52036180#2 c00_52036180#4 c00_40191607#1"/>
    </vehicle>
    <vehicle id="p_235" depart="282.00" departLane="best" departPos="random" departSpeed="max">
        <route edges="c10_314415495#11 c10_314415495#12 c10_314415495#13 c10_314415495#15 c10_314415495#16 c10_314415495#18 c10_318210361#0 c10_318210361#1 c10_670062909#1 c10_670062908#1 c10_670062907#1 c10_670062907#2 c10_670062907#3 c10_670062907#4 c10_670062907#5 c10_670062907#6 c10_143308546#3 c10_143308546#5 c10_143308546#6 c10_143308546#7 c10_143308546#9 c10_143308546#10 c10_143308546#11 c10_143308546#12 c10_143308546#13 c10_143308546#14 c10_143308546#15 c10_670062902#2 c10_670062902#3 c10_143308532#0 c10_143308532#2 c10_-143308562#4 c10_142575690#0 c10_-142575690#0"/>
    </vehicle>
    <vehicle id="p_240" depart="288.00" departLane="best" departPos="random" departSpeed="max">
        <route edges="c01_-52081075#2 c01_143308546#3 c01_143308546#5 c01_143308546#6 c01_143308546#7 c01_143308546#9 c01_143308546#10"/>
    </vehicle>
    <vehicle id="p_243" depart="291.60" departLane="best" departPos="random" departSpeed="max">
        <route edges="c00_-318210371#2 c00_-142575704#18 c00_-142575704#17 c00_-142575704#16 c00_-142575704#15 c00_-142575704#14 c00_-142575704#13 c00_-142575704#12 c00_-142575704#11 c00_-142575704#9 c00_26991766#7"/>
    </vehicle>
    <vehicle id="p_248" depart="297.60" departLane="best" departPos="random" departSpeed="max">
        <route edges="c11_-26991766#12 c11_26991766#12 c11_314415495#9 c11_314415495#10 c11_314415495#11 c11_314415495#12 c11_314415495#13 c11_314415495#15 c11_314415495#16 c11_314415495#18 c11_318210361#0 c11_318210361#1 c11_670062909#1 c11_670062908#1 c11_31050360#0 c11_318210377#0 c11_318210377#1 c11_318210378#2 c11_318210378#3 c11_318210378#4 c11_318210378#5"/>
    </vehicle>
    <vehicle id="p_251" depart="301.20" departLane="best" departPos="random" departSpeed="max">
        <route edges="c11_48858193#0 c11_48858193#2 c11_-578917008 c11_-318210371#2 c11_-142575704#18 c11_-142575704#17 c11_-142575704#16 c11_-142575704#15 c11_-142575704#14 c11_-142575704#13 c11_-142575704#12 c11_-142575704#11 c11_-142575704#9 c11_-142575704#7 c11_-142575704#5 c11_-142575704#4 c11_-142575704#3 c11_-142575704#2 c11_-142575704#1 c11_-142575704#0 c11_143308542#14 c11_143308542#15 c11_143308542#16 c11_31050360#0 c11_318210377#0"/>
    </vehicle>
    <vehicle id="p_258" depart="309.60" departLane="best" departPos="random" departSpeed="max">
        <route edges="c00_-142575704#14 c00_-142575704#13 c00_-142575704#12 c00_-142575704#11 c00_-142575704#9 c00_-142575704#7 c00_-142575704#5 c00_-142575704#4 c00_-142575704#3 c00_-142575704#2 c00_-142575704#1 c00_-142575704#0 c00_143308542#14 c00_143308542#15 c00_143308542#16 c00_143308552#1"/>
    </vehicle>
    <vehicle id="p_260" depart="312.00" departLane="best" departPos="random" departSpeed="max">
        <route edges="c11_190083616 c11_318210395 c11_320741894#0 c11_320741893 c11_190083608#0 c11_-172014854#2 c11_-172014854#1 c11_-172014854#0 c11_-147859763#9 c11_-147859763#8 c11_-147859763#7 c11_-38507369#3 c11_-38507369#0 c11_-142575688#12 c11_-142575688#11 c11_-142575688#8 c11_-142575688#7 c11_-142575688#6 c11_142575688#6"/>
    </vehicle>
    <vehicle id="p_263" depart="315.60" departLane="best" departPos="random" departSpeed="max">
        <route edges="c01_180789857#15 c01_52081116#11 c01_70130339#2 c01_118262353#0 c01_118262353#1 c01_118262353#2 c01_-38915290#1 c01_-38915290#0 c01_142575655#0 c01_142575655#1 c01_142575655#4 c01_142575655#5 c01_142575655#6 c01_142575655#7 c01_142575655#8 c01_142575655#9 c01_142575655#10 c01_142575686#0 c01_142575686#1 c01_142575686#2 c01_142575686#3"/>
    </vehicle>
    <vehicle id="p_265" depart="318.00" departLane="best" departPos="random" departSpeed="max">
        <route edges="c11_-152839428 c11_45875465#0 c11_206889086#1 c11_541676219 c11_318210389#0 c11_670062912#0 c11_670062912#1 c11_81639675#1 c11_670062909#1 c11_670062908#1 c11_670062907#1 c11_670062907#2 c11_670062907#3 c11_670062907#4 c11_670062907#5 c11_670062907#6 c11_-142575674#5 c11_-142575674#2 c11_-142575674#1 c11_-142575674#0 c11_142575656#11 c11_142575656#12 c11_142575656#14"/>
    </vehicle>
    <vehicle id="p_275" depart="330.00" departLane="best" departPos="random" departSpeed="max">
        <route edges="c10_412992935#2 c10_-52081075#11 c10_-52081075#10 c10_-52081075#9 c10_-52081075#8 c10_-142575655#6 c10_-142575655#5 c10_-142575655#4 c10_-142575655#1 c10_-142575655#0 c10_38915290#0 c10_38915290#1 c10_8025704#0 c10_8025704#1 c10_-46424277 c10_118262353#0 c10_118262353#1"/>
    </vehicle>
    <vehicle id="p_277" depart="332.40" departLane="best" departPos="random" departSpeed="max">
        <route edges="c01_-38915290#1 c01_-38915290#0 c01_142575655#0 c01_142575655#1 c01_142575655#4 c01_142575655#5 c01_142575655#6 c01_52081075#8 c01_52081075#9 c01_52081075#10"/>
    </vehicle>
    <vehicle id="p_279" depart="334.80" departLane="best" departPos="random" departSpeed="max">