<?xml version="1.0" encoding="UTF-8"?>

<!-- generated on 2026-03-24 16:57:28.082389 by randomTrips.py UNKNOWN
<configuration>
    <net-file value="sumo/networks/city.net.xml"/>
    <route-file value="sumo/routes/city_freight.rou.xml"/>
    <prefix value="t_"/>
    <trip-attributes value="departLane=&quot;best&quot; departSpeed=&quot;max&quot; departPos=&quot;random&quot;"/>
    <vehicle-class value="truck"/>
    <seed value="404"/>
    <end value="2400.0"/>
    <period value="8.0"/>
</configuration>
-->

<!-- generated on 2026-03-24 16:57:27 by Eclipse SUMO duarouter Version 1.18.0
<configuration xmlns:xsi="http://www.w3.org/2001/XMLSchema-instance" xsi:noNamespaceSchemaLocation="http://sumo.dlr.de/xsd/duarouterConfiguration.xsd">

    <input>
        <net-file value="sumo/networks/city.net.xml"/>
        <route-files value="trips.trips.xml"/>
    </input>

    <output>
        <output-file value="sumo/routes/city_freight.rou.xml"/>
        <alternatives-output value="NUL"/>
    </output>

    <time>
        <begin value="0.0"/>
        <end value="2400.0"/>
    </time>

    <report>
        <no-warnings value="true"/>
        <ignore-errors value="true"/>
        <no-step-log value="true"/>
    </report>

</configuration>
-->

<routes xmlns:xsi="http://www.w3.org/2001/XMLSchema-instance" xsi:noNamespaceSchemaLocation="http://sumo.dlr.de/xsd/routes_file.xsd">
    <vType id="t__truck" vClass="truck"/>
    <vehicle id="t_0" type="t__truck" depart="0.00" departLane="best" departPos="random" departSpeed="max">
        <route edges="-142575684#5 -142575684#4 -142575684#1 -142575684#0 142575685#0 142575685#1 -142575655#10 -142575655#9 -142575655#8 -142575655#7 -52081075#7 -52081075#6 -52081075#4 -52081075#3 -52081075#2 -142575674#5 -142575674#2 -142575674#1 -142575674#0 -142575656#10 -142575656#9 -142575656#8 -142575656#7 142575704#2 142575704#3 142575704#4 142575704#5 142575704#7 142575704#9 142575704#11 142575704#12 142575704#13 142575704#14 -137483014 -137483015#3 -137483015#2 137483015#2"/>
    </vehicle>
    <vehicle id="t_1" type="t__truck" depart="8.00" departLane="best" departPos="random" departSpeed="max">
        <route edges="-135777010#2 -142575684#5 -142575684#4 -142575684#1 -142575684#0 142575685#0 142575685#1 -142575655#10 -142575655#9 -142575655#8 -142575655#7 -52081075#7 -52081075#6 -52081075#4 -52081075#3 -52081075#2 -142575674#5 142575688#0 -142575688#0"/>
    </vehicle>
    <vehicle id="t_2" type="t__truck" depart="16.00" departLane="best" departPos="random" departSpeed="max">
        <route edges="143308505#0 -143308505#0 -142575656#12 -142575656#11 -142575656#10 -142575656#9 -142575656#8 -142575656#7 -142575704#1 -142575704#0 143308542#14 143308542#15 143308542#16 31050360#0 318210377#0 318210377#1 318210378#2 318210378#3 318210378#4 -318210378#4"/>
    </vehicle>
    <vehicle id="t_3" type="t__truck" depart="24.00" departLane="best" departPos="random" departSpeed="max">
        <route edges="135777010#1 -142575684#5 -142575684#4 -142575684#1 -142575684#0 142575685#0 142575685#1 142575693#0 142575693#1 142575693#2 142575693#3 142575693#4 142575693#5 143308546#13 143308546#14 143308546#15 143308542#3 143308542#4 143308542#6 143308542#7 142575691#0 142575691#1 -142575688#3"/>
    </vehicle>
    <vehicle id="t_4" type="t__truck" depart="32.00" departLane="best" departPos="random" departSpeed="max">
        <route edges="334308447#1 -334308447#1 -334308447#0 -318210394#0 -52080655#2 670062912#0 670062912#1 81639675#1 143308549#1"/>
    </vehicle>
    <vehicle id="t_5" type="t__truck" depart="40.00" departLane="best" departPos="random" departSpeed="max">
        <route edges="142575684#1 -142575684#1 -142575684#0 142575685#0 142575685#1 142575693#0 142575693#1 142575693#2 -71028777#2 -71028777#0 24733698#1 143308546#6 143308546#7 143308546#9 142575692#0"/>
    </vehicle>
    <vehicle id="t_6" type="t__truck" depart="48.00" departLane="best" departPos="random" departSpeed="max">
        <route edges="-143308505#2 143308505#2 143308505#3 -142575694#1 -142575694#0 142575704#5 142575704#7 142575704#9"/>
    </vehicle>
    <vehicle id="t_7" type="t__truck" depart="56.00" departLane="best" departPos="random" departSpeed="max">
        <route edges="23925124#0 23925119#0 23925119#1 40191606#2 414563781 206889086#1 541676219 318210389#0 670062912#0 670062912#1 81639675#1 670062909#1 670062908#1 670062907#1 670062907#2 670062907#3 670062907#4 670062907#5 670062907#6 52081075#0 52081075#3 52081075#4 52081075#6 52081075#7 142575655#7 142575655#8 142575655#9 142575655#10 -143308521#8 -143308521#7 -143308521#6 -143308521#5 -143308521#4 -143308521#3 -143308521#2 -143308521#1"/>
    </vehicle>
    <vehicle id="t_8" type="t__truck" depart="64.00" departLane="best" departPos="random" departSpeed="max">
        <route edges="-142575704#11 -142575704#9 -142575704#7 -142575704#5 -142575704#4 -142575704#3 -142575704#2 142575656#7 142575656#8 142575656#9 142575656#10 142575674#0 142575674#1 142575674#2 142575688#0 142575688#1 142575688#2"/>
    </vehicle>
    <vehicle id="t_9" type="t__truck" depart="72.00" departLane="best" departPos="random" departSpeed="max">
        <route edges="-142575700#2 142575700#2 142575700#3 -318210378#5 -318210378#4 -318210378#3 -318210378#2 -318210378#0 -318210377#0 -31050360#2 143308552#1 -318210361#3 -318210361#0 -314415495#18 -314415495#16 -314415495#15 -314415495#13 -314415495#12 -314415495#11 -314415495#10 -314415495#9 -314415495#8 -314415495#7 -314415495#6 -314415495#5 -314415495#4 -314415495#3 -314415495#2 -142575709 137483015#2 137483015#3 137483015#5"/>
    </vehicle>
    <vehicle id="t_10" type="t__truck" depart="80.00" departLane="best" departPos="random" departSpeed="max">
        <route edges="-26991766#1 -26991766#0 -172013798#0 -147859765#5 -147859765#4 -147859765#2 -147859765#1 -147859765#0 -142575656#15 -142575656#14 -142575656#12 -142575656#11 142575674#0 142575674#1 142575674#2 142575674#3 52081075#0 52081075#3 52081075#4 52081075#6 52081075#7 142575655#7 142575655#8 142575655#9 142575655#10 -143308521#8 -143308521#7 -143308521#6 -143308521#5 -143308521#4 142575657#0 142575657#1 -142575657#1"/>
    </vehicle>
    <vehicle id="t_11" type="t__truck" depart="88.00" departLane="best" departPos="random" departSpeed="max">
        <route edges="-38159999#1 -38159999#0 314415495#6 314415495#7 314415495#8 314415495#9 314415495#10 314415495#11 314415495#12 314415495#13 314415495#15 314415495#16 314415495#18 318210361#0 318210361#1 670062909#1 670062908#1 31050360#0"/>
    </vehicle>
    <vehicle id="t_12" type="t__truck" depart="96.00" departLane="best" departPos="random" departSpeed="max">
        <route edges="142575694#2 -147859765#2 -147859765#1 -147859765#0 582467484#1 147859763#1 147859763#2 147859763#3 147859763#4 147859763#5 147859763#7 147859763#8 147859763#9 172014854#0 172014854#1 172014854#2 -190083608#0 -320741893 320741895#0 -190083618#2 -24214694#5 -24214694#4 -24214694#3 143308590#0 143308532#0 143308532#2 -143308562#4 -143308562#2 -143308562#1"/>
    </vehicle>
    <vehicle id="t_13" type="t__truck" depart="104.00" departLane="best" departPos="random" departSpeed="max">
        <route edges="-142575658#1 -143308562#6 46039050#4 143308542#0 143308542#3 143308542#4 143308542#6 143308542#7 142575691#0 142575691#1 -142575688#3 -142575688#2 -142575688#1"/>
    </vehicle>
    <vehicle id="t_14" type="t__truck" depart="112.00" departLane="best" departPos="random" departSpeed="max">
        <route edges="71028774#1 -71028774#1 -71028774#0 -71028777#2 -71028777#0 24733698#1"/>
    </vehicle>
    <vehicle id="t_15" type="t__truck" depart="120.00" departLane="best" departPos="random" departSpeed="max">
        <route edges="143308521#0 143308521#1 143308521#2 143308521#3 143308521#4 143308521#5 143308521#6 143308521#7 143308521#8 -142575655#10 -142575655#9 -142575655#8 -142575655#7 -52081075#7 -52081075#6 -52081075#4 -52081075#3 -52081075#2 -142575674#5 -142575674#2 -142575674#1 -142575674#0 -142575656#10 -142575656#9 -142575656#8 -142575656#7 142575704#2 142575704#3 142575704#4 142575694#0"/>
    </vehicle>
    <vehicle id="t_16" type="t__truck" depart="128.00" departLane="best" departPos="random" departSpeed="max">
        <route edges="318210366 -318210367#0 -318210369#1 -318210369#0 -190083608#2 -190083608#1 -190083608#0 -320741893 320741895#0 -190083618#2 -24214694#5 -24214694#4 -24214694#3 143308590#0 143308532#0 143308532#2 -143308562#4 142575690#0 -142575690#0"/>
    </vehicle>
    <vehicle id="t_17" type="t__truck" depart="136.00" departLane="best" departPos="random" departSpeed="max">
        <route edges="257072321#8 257072321#9 257072321#10 257072321#11 257072321#12 -142575655#1 -142575655#0 -318210378#5 -318210378#4 -318210378#3 -318210378#2 -318210378#0 -318210377#0 -31050360#2 143308552#1 -318210361#3 -318210361#0 -314415495#18 -314415495#16 314415495#16"/>
    </vehicle>
    <vehicle id="t_18" type="t__truck" depart="144.00" departLane="best" departPos="random" departSpeed="max">
        <route edges="-314415495#3 314415495#3 314415495#4 314415495#5 314415495#6 314415495#7 314415495#8 314415495#9 314415495#10 314415495#11 314415495#12 314415495#13 314415495#15 314415495#16 314415495#18 318210361#0 318210361#1 670062909#1 670062908#1 31050360#0 318210377#0 318210377#1 318210378#2 318210378#3 318210378#4 318210378#5 142575655#0 142575655#1 180789857#1 180789857#2 180789857#3 180789857#4 180789857#5 180789857#6"/>
    </vehicle>
    <vehicle id="t_19" type="t__truck" depart="152.00" departLane="best" departPos="random" departSpeed="max">
        <route edges="-318210373#1 -318210373#0 -142575672#3 -142575672#2 670062912#0 670062912#1 81639675#1 670062909#1 670062908#1 670062907#1 670062907#2 670062907#3 670062907#4 670062907#5 670062907#6 143308546#3 143308546#5 143308546#6"/>
    </vehicle>
    <vehicle id="t_21" type="t__truck" depart="168.00" departLane="best" departPos="random" departSpeed="max">
        <route edges="70130339#1 70130339#2 118262353#0 118262353#1 118262353#2 -38915290#1 -38915290#0 142575655#0 142575655#1 142575655#4 142575655#5 142575655#6 142575655#7 142575655#8 142575655#9 142575655#10 -143308521#8 -143308521#7 -143308521#6 -143308521#5 -143308521#4 -143308521#3 -143308521#2 143308562#0 143308562#1 143308562#2 143308562#4 143308562#6 -143308562#6"/>
    </vehicle>
    <vehicle id="t_22" type="t__truck" depart="176.00" departLane="best" departPos="random" departSpeed="max">
        <route edges="-172013798#3 -172013798#2 -172013798#0 -147859765#5 -147859765#4 -147859765#2 -147859765#1 -147859765#0 -142575691#2 -142575691#1 -142575691#0 143308542#8 143308542#11 143308542#13 143308542#14 143308542#15 143308542#16 143308552#1 143308549#1 143308549#2 143308549#4 52036180#1 52036180#2 52036180#4 -45875465#0 152839428 24152326#0 24152326#1 23925124#0 -23925124#0"/>
    </vehicle>
    <vehicle id="t_24" type="t__truck" depart="192.00" departLane="best" departPos="random" departSpeed="max">
        <route edges="-142575656#8 -142575656#7 142575704#2 142575704#3 142575704#4 142575704#5 142575704#7 142575704#9 142575704#11 38159999#5 38159999#6 38159999#7 -38159999#7"/>
    </vehicle>
    <vehicle id="t_25" type="t__truck" depart="200.00" departLane="best" departPos="random" departSpeed="max">
        <route edges="142575662#0 -142575662#0 -142575684#4 -142575684#1 -142575684#0 142575685#0 142575685#1 -142575655#10 -142575655#9 -142575655#8 -142575655#7 -52081075#7 -52081075#6 -52081075#4 -52081075#3 -52081075#2 -142575674#5 -142575674#2 -142575674#1 -142575674#0 -142575656#10 -142575656#9 -142575656#8 -142575656#7 142575704#2 142575704#3 142575704#4 142575704#5 142575704#7 142575704#9 142575704#11 142575704#12 142575704#13 142575704#14 -137483014 -137483015#3 -137483015#2"/>
    </vehicle>
    <vehicle id="t_26" type="t__truck" depart="208.00" departLane="best" departPos="random" departSpeed="max">
        <route edges="70130339#1 70130339#2 118262353#0 118262353#1 118262353#2 -38915290#1 -38915290#0 142575655#0 142575655#1 142575655#4 142575655#5 142575655#6 142575655#7 142575655#8 142575655#9 142575655#10 142575693#0 142575693#1 142575693#2 142575693#3 142575693#4 -142575690#8 -142575690#7 -142575690#6 -142575690#5"/>
    </vehicle>
    <vehicle id="t_27" type="t__truck" depart="216.00" departLane="best" departPos="random" departSpeed="max">
        <route edges="142575690#0 142575690#2 142575690#3 142575690#5 142575690#6 142575690#7 142575690#8 142575693#5 143308546#13 143308546#14 143308546#15 143308542#3 143308542#4 143308542#6 143308542#7 142575691#0 142575691#1 142575691#2 582467484#1"/>
    </vehicle>
    <vehicle id="t_28" type="t__truck" depart="224.00" departLane="best" departPos="random" departSpeed="max">
        <route edges="259466417#0 259466417#1 259466417#2 259466417#3 259466417#4 578659321#0 578659322 313964778#0 313964778#1 313964778#2 -52081075#11 -52081075#10 -52081075#9 -52081075#8 -52081075#7 -52081075#6 -52081075#4 -52081075#3 -52081075#2 -142575674#5 -142575674#2 -142575674#1 -142575674#0 -142575656#10 -142575656#9 -142575656#8 -142575656#7 142575704#2 142575704#3 142575704#4 142575704#5 142575704#7 142575704#9 142575704#11 -38159999#4 38159999#4"/>
    </vehicle>
    <vehicle id="t_29" type="t__truck" depart="232.00" departLane="best" departPos="random" departSpeed="max">
        <route edges="52081116#1 52081116#2 52081116#3 52081116#4 52081116#5 52081116#6 52081116#7 52081116#8 52081116#11 70130339#2 118262353#0 118262353#1 118262353#2 -38915290#1 -38915290#0 142575655#0 142575655#1 142575655#4 142575655#5 142575655#6 142575655#7 142575655#8 142575655#9 142575655#10 -143308521#8 -143308521#7 -143308521#6 -143308521#5 -143308521#4 -143308521#3 -143308521#2 143308562#0 143308562#1 143308562#2"/>
    </vehicle>
    <vehicle id="t_30" type="t__truck" depart="240.00" departLane="best" departPos="random" departSpeed="max">
        <route edges="142575700#0 142575700#1 142575700#2 142575700#3 -318210378#5 -318210378#4 -318210378#3 -318210378#2 -318210378#0 -318210377#0 -31050360#2 143308552#1 -318210361#3 -318210361#0 -314415495#18 -314415495#16 142575656#0 142575656#1 142575656#3 142575656#5 142575656#6 142575704#2 142575704#3 142575704#4 142575704#5 142575704#7 142575704#9 142575704#11 142575704#12"/>
    </vehicle>
    <vehicle id="t_31" type="t__truck" depart="248.00" departLane="best" departPos="random" departSpeed="max">
        <route edges="-31050360#2 670062907#1 670062907#2 670062907#3 670062907#4 670062907#5 670062907#6 52081075#0 52081075#3 52081075#4"/>
    </vehicle>
    <vehicle id="t_32" type="t__truck" depart="256.00" departLane="best" departPos="random" departSpeed="max">
        <route edges="142575674#2 -142575674#2 -142575674#1 -142575674#0 142575656#11 142575656#12 142575656#14 142575656#15 582467484#1 147859763#1 147859763#2 147859763#3 147859763#4 147859763#5 147859763#7 147859763#8 147859763#9 172014854#0"/>
    </vehicle>
    <vehicle id="t_33" type="t__truck" depart="264.00" departLane="best" departPos="random" departSpeed="max">
        <route edges="-143308521#3 143308521#3 143308521#4 143308521#5 143308521#6 143308521#7 143308521#8 142575686#0 142575686#1 142575686#2 142575686#3 142575686#4 142575684#0 142575684#1 -142575684#1"/>
    </vehicle>
    <vehicle id="t_34" type="t__truck" depart="272.00" departLane="best" departPos="random" departSpeed="max">
        <route edges="142575700#0 -142575700#0 -334308447#1 -334308447#0 -318210394#0 -52080655#2 670062912#0"/>
    </vehicle>
    <vehicle id="t_35" type="t__truck" depart="280.00" departLane="best" departPos="random" departSpeed="max">
        <route edges="142575656#5 142575656#6 142575656#7 142575656#8 142575656#9 142575656#10 142575656#11 142575656#12 142575656#14 142575656#15 582467484#1 147859763#1 147859763#2 147859763#3 147859763#4 147859763#5 147859763#7 147859763#8 147859763#9 172014854#0 172014854#1 172014854#2 -190083608#0 -320741893 320741895#0 -190083618#2"/>
    </vehicle>
    <vehicle id="t_36" type="t__truck" depart="288.00" departLane="best" departPos="random" departSpeed="max">
        <route edges="142575655#10 -142575655#10 -142575655#9 -142575655#8 -142575655#7 -142575655#6 -142575655#5 -142575655#4 -142575655#1 -142575655#0 -142575700#3 -142575700#2 -142575700#1 -142575700#0 -334308447#1 -334308447#0 -318210394#0 -52080655#2 670062912#0"/>
    </vehicle>
    <vehicle id="t_37" type="t__truck" depart="296.00" departLane="best" departPos="random" departSpeed="max">
        <route edges="-147859765#0 -142575691#2 -142575691#1 -142575691#0 143308542#8 143308542#11 143308542#13 143308542#14 143308542#15 143308542#16 31050360#0 318210377#0 318210377#1 318210378#2 318210378#3 318210378#4 318210378#5 142575655#0"/>
    </vehicle>
    <vehicle id="t_38" type="t__truck" depart="304.00" departLane="best" departPos="random" departSpeed="max">
        <route edges="147859765#4 -147859765#4 -147859765#2 -147859765#1 -147859765#0 582467484#1 147859763#1 147859763#2 147859763#3 147859763#4 147859763#5 147859763#7 147859763#8 147859763#9 172014854#0 172014854#1 172014854#2 -190083608#0 -320741893 320741895#0 -283317455#1 -190083616"/>
    </vehicle>
    <vehicle id="t_39" type="t__truck" depart="312.00" departLane="best" departPos="random" departSpeed="max">
        <route edges="142575677#0 334308447#1 142575700#0 142575700#1 142575700#2 142575700#3 142575655#0 142575655#1 142575655#4 142575655#5 142575655#6 142575655#7 142575655#8 142575655#9 142575655#10 -143308521#8 -143308521#7 -143308521#6 -143308521#5 -143308521#4 -143308521#3 -143308521#2 143308562#0 143308562#1 143308562#2 -143308562#2"/>
    </vehicle>
    <vehicle id="t_40" type="t__truck" depart="320.00" departLane="best" departPos="random" departSpeed="max">
        <route edges="313964778#0 313964778#1 313964778#2 -52081075#11 -52081075#10 -52081075#9 -52081075#8 -52081075#7 -52081075#6 -52081075#4 -52081075#3 -52081075#2 -142575674#5 142575688#0 142575688#1 142575688#2 142575688#3 142575688#4 142575688#5 142575688#6 142575688#7 142575688#8 142575688#11 -142575688#11"/>
    </vehicle>
    <vehicle id="t_41" type="t__truck" depart="328.00" departLane="best" departPos="random" departSpeed="max">
        <route edges="-142575701#2 -142575701#0 -318210378#0 -318210377#0 -31050360#2 143308552#1 -318210361#3 -318210361#0 -314415495#18 -314415495#16 -314415495#15 -314415495#13 -314415495#12 -314415495#11 -314415495#10 -314415495#9 -314415495#8 -314415495#7 -314415495#6 -314415495#5 -314415495#4 -314415495#3 -314415495#2 -142575709 137483015#2 137483015#3 137483015#5"/>
    </vehicle>
    <vehicle id="t_42" type="t__truck" depart="336.00" departLane="best" departPos="random" departSpeed="max">
        <route edges="24214694#5 190083618#0 -190083618#2 -24214694#5 -24214694#4 -24214694#3 143308590#0 143308542#0 143308542#3 143308542#4 143308542#6 143308542#7 143308542#8 52081075#0 52081075#3 52081075#4 52081075#6 52081075#7 52081075#8 52081075#9 52081075#10 52081075#11 259466417#0"/>
    </vehicle>
    <vehicle id="t_43" type="t__truck" depart="344.00" departLane="best" departPos="random" departSpeed="max">
        <route edges="52036180#2 52036180#4 206889086#1 541676219 318210389#0 670062912#0 670062912#1 81639675#1 670062909#1 670062908#1 670062907#1 670062907#2 670062907#3 670062907#4 670062907#5 670062907#6 -142575674#5 -142575674#2 -142575674#1 -142575674#0 142575656#11 142575656#12 142575656#14 142575656#15"/>
    </vehicle>
    <vehicle id="t_44" type="t__truck" depart="352.00" departLane="best" departPos="random" departSpeed="max">
        <route edges="-142575690#2 -142575690#0 143308562#4 46039050#4 143308542#0 143308542#3 143308542#4 143308542#6 143308542#7 142575691#0 142575691#1 142575688#4 142575688#5 142575688#6 142575688#7 142575688#8"/>
    </vehicle>
    <vehicle id="t_45" type="t__truck" depart="360.00" departLane="best" departPos="random" departSpeed="max">
        <route edges="23925123 24152326#1 23925124#0 23925119#0 23925119#1 40191606#2 414563781 206889086#1 541676219 318210389#0 142575672#0"/>
    </vehicle>
    <vehicle id="t_47" type="t__truck" depart="376.00" departLane="best" departPos="random" departSpeed="max">
        <route edges="142575691#1 -142575688#3 -142575688#2 -142575688#1 -142575688#0 142575674#3 52081075#0 52081075#3 52081075#4 52081075#6 52081075#7 142575655#7 142575655#8 142575655#9 142575655#10 142575686#0 142575686#1 142575686#2 142575686#3 142575686#4 142575684#0 142575684#1 257072322#1 257072322#2 412992935#0"/>
    </vehicle>
    <vehicle id="t_49" type="t__truck" depart="392.00" departLane="best" departPos="random" departSpeed="max">
        <route edges="142575684#5 -142575684#5 -142575684#4 -142575684#1 -142575684#0 142575685#0 142575685#1 -142575655#10 -142575655#9 -142575655#8 -142575655#7 -142575655#6 -142575655#5 -142575655#4 -142575687#1 -142575687#0 143308493#0 143308493#1 143308493#2 143308493#3 670062907#5"/>
    </vehicle>
    <vehicle id="t_50" type="t__truck" depart="400.00" departLane="best" departPos="random" departSpeed="max">
        <route edges="412992935#0 412992935#1 412992935#2 -52081075#11 -52081075#10 -52081075#9 -52081075#8 -52081075#7 -52081075#6 -52081075#4 -52081075#3 -52081075#2 143308542#11 143308542#13 143308542#14 143308542#15 143308542#16 143308552#1 143308549#1 143308549#2 143308549#4 52036180#1 52036180#2 52036180#4 -45875465#0"/>
    </vehicle>
    <vehicle id="t_51" type="t__truck" depart="408.00" departLane="best" departPos="random" departSpeed="max">
        <route edges="142575659#0 -142575659#0 -71028774#1 -71028774#0 142575692#3 142575692#5 142575692#6 -142575655#10 -142575655#9 -142575655#8 -142575655#7 -142575655#6 -142575655#5 -142575655#4 -142575655#1 -142575655#0 -142575700#3 -142575700#2 -142575700#1 -142575700#0 -334308447#1 -334308447#0 -318210394#0 -52080655#2"/>
    </vehicle>
    <vehicle id="t_52" type="t__truck" depart="416.00" departLane="best" departPos="random" departSpeed="max">
        <route edges="-142575690#0 143308562#4 46039050#4 143308542#0 143308542#3 143308542#4 143308542#6 143308542#7 143308542#8 143308542#11 143308542#13 143308542#14 143308542#15 143308542#16 143308552#1 -318210361#3 -318210361#0 -314415495#18 -314415495#16 142575656#0"/>
    </vehicle>
    <vehicle id="t_53" type="t__truck" depart="424.00" departLane="best" departPos="random" departSpeed="max">
        <route edges="143308493#1 -143308493#1 -143308493#0 142575687#0 142575687#1 -142575655#1 -142575655#0 38915290#0 38915290#1 8025704#0 8025704#1 -46424277 118262353#0 118262353#1 118262353#2 -38915290#1"/>
    </vehicle>
    <vehicle id="t_54" type="t__truck" depart="432.00" departLane="best" departPos="random" departSpeed="max">
        <route edges="142575689 -142575689 -52081075#3 -52081075#2 -142575674#5 -142575674#2 -142575674#1 -142575674#0 -142575656#10 -142575656#9 -142575656#8 -142575656#7 142575704#2 142575704#3 142575704#4 142575704#5 142575704#7 142575704#9 142575704#11 142575704#12 142575704#13 142575704#14 142575704#15 142575704#16 -142575704#16"/>
    </vehicle>
    <vehicle id="t_55" type="t__truck" depart="440.00" departLane="best" departPos="random" departSpeed="max">
        <route edges="38915290#0 -38915290#0 -318210378#5 -318210378#4 -318210378#3 -318210378#2 -318210378#0 -318210377#0 -31050360#2 670062907#1 670062907#2 670062907#3 670062907#4 670062907#5 670062907#6 -142575674#5 -142575674#2 -142575674#1 -142575674#0 142575656#11 142575656#12 142575656#14 142575656#15 147859766 147859765#1 147859765#2 147859765#4"/>
    </vehicle>
    <vehicle id="t_56" type="t__truck" depart="448.00" departLane="best" departPos="random" departSpeed="max">
        <route edges="-142575655#0 -318210378#5 -318210378#4 -318210378#3 -318210378#2 -318210378#0 -318210377#0 -31050360#2 143308552#1 -318210361#3 -318210361#0 -314415495#18 -314415495#16 -314415495#15 -314415495#13 -314415495#12 -314415495#11 -314415495#10 -314415495#9 -314415495#8 -314415495#7 -314415495#6"/>
    </vehicle>
    <vehicle id="t_57" type="t__truck" depart="456.00" departLane="best" departPos="random" departSpeed="max">
        <route edges="172014854#1 172014854#2 190083608#1 190083608#2 190083608#3 318210369#1 318210366 318210367#1 142575678#0 142575678#1 -38159999#8 -38159999#7 -38159999#6 -38159999#5 -38159999#4 -38159999#3 -38159999#2 38159999#2"/>
    </vehicle>
    <vehicle id="t_58" type="t__truck" depart="464.00" departLane="best" departPos="random" departSpeed="max">
        <route edges="142575710#2 -142575710#2 -142575710#0 -52081075#4 -52081075#3 -52081075#2 -142575674#5"/>
    </vehicle>
    <vehicle id="t_59" type="t__truck" depart="472.00" departLane="best" departPos="random" departSpeed="max">
        <route edges="142575692#0 142575692#2 142575693#3 142575693#4 142575693#5 143308546#13 143308546#14 143308546#15 143308542#3 143308542#4 143308542#6 143308542#7 142575691#0 142575691#1 142575691#2 -142575656#15"/>
    </vehicle>
    <vehicle id="t_60" type="t__truck" depart="480.00" departLane="best" departPos="random" departSpeed="max">
        <route edges="-142575704#11 142575704#11 38159999#5 38159999#6 38159999#7 38159999#8 38160000 38160001#0 38160001#1 -318210367#0 -318210369#1 -318210369#0 -190083608#2 -190083608#1 -190083608#0 -320741893 320741895#0 326994261#0 -190083610"/>
    </vehicle>
    <vehicle id="t_61" type="t__truck" depart="488.00" departLane="best" departPos="random" departSpeed="max">
        <route edges="143308532#2 46039050#4 143308542#0 143308542#3 143308542#4 143308542#6 143308542#7 143308542#8 143308542#11 143308542#13 143308542#14 143308542#15 143308542#16 143308552#1 143308549#1 143308549#2 143308549#4 52080655#0 318210394#0 -318210394#0"/>
    </vehicle>
    <vehicle id="t_62" type="t__truck" depart="496.00" departLane="best" departPos="random" departSpeed="max">
        <route edges="-142575694#1 142575694#1 -143308505#3 -143308505#2 -143308505#1 -143308505#0 -142575656#12 -142575656#11 142575674#0 142575674#1 142575674#2 142575674#3 52081075#0 52081075#3 52081075#4 52081075#6 52081075#7 142575655#7 142575655#8 142575655#9 142575655#10 142575686#0 142575686#1 142575686#2 142575686#3 142575686#4 142575685#0 142575685#1"/>
    </vehicle>
    <vehicle id="t_63" type="t__truck" depart="504.00" departLane="best" departPos="random" departSpeed="max">
        <route edges="180789857#8 180789857#9 180789857#10 180789857#11 180789857#12 180789857#13 180789857#14 180789857#15 52081116#11 70130339#2 118262353#0 118262353#1 118262353#2 -38915290#1 -38915290#0 -318210378#5 -318210378#4 -318210378#3 -318210378#2 -318210378#0 -318210377#0 -31050360#2 670062907#1 670062907#2 670062907#3 670062907#4 670062907#5 670062907#6 -142575674#5 -142575674#2 -142575674#1 -142575674#0 142575656#11 142575656#12 142575656#14 142575656#15 582467484#1 147859763#1 147859763#2 147859763#3 147859763#4 147859763#5 147859763#7 147859763#8 147859763#9 172014854#0 172014854#1 172014854#2 -190083608#0"/>
    </vehicle>
    <vehicle id="t_64" type="t__truck" depart="512.00" departLane="best" departPos="random" departSpeed="max">
        <route edges="259433184#0 142575684#4 142575684#5 135777010#2 135777010#3 -135777010#3"/>
    </vehicle>
    <vehicle id="t_65" type="t__truck" depart="520.00" departLane="best" departPos="random" departSpeed="max">
        <route edges="142575688#0 -142575688#0 142575674#3 52081075#0 52081075#3 52081075#4 52081075#6 52081075#7 -142575655#6 -142575655#5 -142575655#4 -142575655#1"/>
    </vehicle>
    <vehicle id="t_66" type="t__truck" depart="528.00" departLane="best" departPos="random" departSpeed="max">
        <route edges="180789857#1 180789857#2 180789857#3 180789857#4 257072321#8 257072321#9 257072321#10 257072321#11 257072321#12 -142575687#1 -142575687#0 143308493#0 143308493#1 143308493#2 143308493#3 670062907#5 670062907#6 -142575674#5 -142575674#2 -142575674#1 -142575674#0 142575656#11 142575656#12 142575656#14 142575656#15 582467484#1 147859763#1 147859763#2 147859763#3 147859763#4 147859763#5 147859763#7 147859763#8 -147859763#8"/>
    </vehicle>
    <vehicle id="t_67" type="t__truck" depart="536.00" departLane="best" departPos="random" departSpeed="max">
        <route edges="40191606#0 40191606#2 414563781 206889086#1 541676219 318210389#0 670062912#0 670062912#1 81639675#1 -318210361#3 -318210361#0 -314415495#18 -314415495#16 -314415495#15 -314415495#13 -314415495#12 -314415495#11 -314415495#10 -314415495#9 -26991766#12 -26991766#11 -26991766#10 -26991766#9 -26991766#8 -26991766#7 26991766#7"/>
    </vehicle>
    <vehicle id="t_68" type="t__truck" depart="544.00" departLane="best" departPos="random" departSpeed="max">
        <route edges="135777010#0 -142575657#4 -142575657#3 -142575657#2 -142575657#1 -142575657#0 143308521#4 143308521#5 143308521#6 143308521#7 143308521#8 -142575655#10 -142575655#9 -142575655#8 -142575655#7 -142575655#6 -142575655#5 -142575655#4"/>
    </vehicle>
    <vehicle id="t_69" type="t__truck" depart="552.00" departLane="best" departPos="random" departSpeed="max">
        <route edges="-142575704#11 -142575704#9 -142575704#7 -142575704#5 -142575704#4 -142575704#3 -142575704#2 -142575704#1 -142575704#0 143308542#14 143308542#15 143308542#16 143308552#1 143308549#1 143308549#2 143308549#4 52036180#1 52036180#2 52036180#4 206889086#1 541676219"/>
    </vehicle>
    <vehicle id="t_70" type="t__truck" depart="560.00" departLane="best" departPos="random" departSpeed="max">
        <route edges="142575684#5 -142575684#5 -142575684#4 -142575684#1 -142575684#0 142575685#0 142575685#1 142575693#0 142575693#1 142575693#2 142575693#3 142575693#4 142575693#5 143308546#13 143308546#14 143308546#15 670062902#2 670062902#3 143308587#0 24214694#3 24214694#4 24214694#5 190083618#0 320741894#0 320741893 190083608#0 190083608#1 190083608#2 190083608#3 318210369#1"/>
    </vehicle>
    <vehicle id="t_71" type="t__truck" depart="568.00" departLane="best" departPos="random" departSpeed="max">