<?xml version="1.0" encoding="UTF-8"?>

<!-- generated on 2026-03-24 16:17:10.311134 by randomTrips.py UNKNOWN
<configuration>
    <net-file value="sumo/networks/hackathon_demo.net.xml"/>
    <route-file value="sumo/routes/hackathon_demo_freight.rou.xml"/>
    <prefix value="t_"/>
    <trip-attributes value="departLane=&quot;best&quot; departSpeed=&quot;max&quot; departPos=&quot;random&quot;"/>
    <vehicle-class value="truck"/>
    <seed value="202"/>
    <end value="1800.0"/>
    <period value="5.0"/>
</configuration>
-->

<!-- generated on 2026-03-24 16:17:10 by Eclipse SUMO duarouter Version 1.18.0
<configuration xmlns:xsi="http://www.w3.org/2001/XMLSchema-instance" xsi:noNamespaceSchemaLocation="http://sumo.dlr.de/xsd/duarouterConfiguration.xsd">

    <input>
        <net-file value="sumo/networks/hackathon_demo.net.xml"/>
        <route-files value="trips.trips.xml"/>
    </input>

    <output>
        <output-file value="sumo/routes/hackathon_demo_freight.rou.xml"/>
        <alternatives-output value="NUL"/>
    </output>

    <time>
        <begin value="0.0"/>
        <end value="1800.0"/>
    </time>

    <report>
        <no-warnings value="true"/>
        <ignore-errors value="true"/>
        <no-step-log value="true"/>
    </report>

</configuration>
-->

<routes xmlns:xsi="http://www.w3.org/2001/XMLSchema-instance" xsi:noNamespaceSchemaLocation="http://sumo.dlr.de/xsd/routes_file.xsd">
    <vType id="t__truck" vClass="truck"/>
    <vehicle id="t_0" type="t__truck" depart="0.00" departLane="best" departPos="random" departSpeed="max">
        <route edges="G5G4 G4G3 G3F3 F3F2 F2F1 F1F0 F0bottom5"/>
    </vehicle>
    <vehicle id="t_1" type="t__truck" depart="5.00" departLane="best" departPos="random" departSpeed="max">
        <route edges="D4E4 E4E3 E3D3 D3C3 C3B3 B3B4"/>
    </vehicle>
    <vehicle id="t_2" type="t__truck" depart="10.00" departLane="best" departPos="random" departSpeed="max">
        <route edges="G1F1 F1F2 F2G2 G2H2 H2H3 H3H4 H4H5"/>
    </vehicle>
    <vehicle id="t_3" type="t__truck" depart="15.00" departLane="best" departPos="random" departSpeed="max">
        <route edges="E0D0 D0D1 D1D2 D2D3 D3D4 D4E4 E4F4 F4G4 G4H4"/>
    </vehicle>
    <vehicle id="t_4" type="t__truck" depart="20.00" departLane="best" departPos="random" departSpeed="max">
        <route edges="A2A3 A3B3 B3C3 C3D3 D3E3 E3E2 E2E1 E1E0"/>
    </vehicle>
    <vehicle id="t_5" type="t__truck" depart="25.00" departLane="best" departPos="random" departSpeed="max">
        <route edges="C0B0 B0B1 B1B2 B2B3 B3B4 B4B5 B5C5 C5D5 D5E5"/>
    </vehicle>
    <vehicle id="t_6" type="t__truck" depart="30.00" departLane="best" departPos="random" departSpeed="max">
        <route edges="F3F4 F4F5 F5G5 G5F5"/>
    </vehicle>
    <vehicle id="t_7" type="t__truck" depart="35.00" departLane="best" departPos="random" departSpeed="max">
        <route edges="E4F4 F4G4 G4G5 G5H5"/>
    </vehicle>
    <vehicle id="t_8" type="t__truck" depart="40.00" departLane="best" departPos="random" departSpeed="max">
        <route edges="D0E0 E0D0 D0C0 C0B0 B0A0"/>
    </vehicle>
    <vehicle id="t_9" type="t__truck" depart="45.00" departLane="best" departPos="random" departSpeed="max">
        <route edges="E2D2 D2D3 D3D4 D4E4 E4F4 F4F3"/>
    </vehicle>
    <vehicle id="t_10" type="t__truck" depart="50.00" departLane="best" departPos="random" departSpeed="max">
        <route edges="G2G3 G3G2 G2G1 G1F1 F1E1 E1D1 D1C1 C1B1 B1A1 A1left1"/>
    </vehicle>
    <vehicle id="t_11" type="t__truck" depart="55.00" departLane="best" departPos="random" departSpeed="max">
        <route edges="C2C3 C3C2 C2C1 C1C0 C0B0"/>
    </vehicle>
    <vehicle id="t_12" type="t__truck" depart="60.00" departLane="best" departPos="random" departSpeed="max">
        <route edges="E2E1 E1E2 E2E3 E3E4 E4E5 E5F5 F5G5 G5G4"/>
    </vehicle>
    <vehicle id="t_13" type="t__truck" depart="65.00" departLane="best" departPos="random" departSpeed="max">
        <route edges="C3D3 D3D2 D2C2 C2B2 B2A2 A2A1"/>
    </vehicle>
    <vehicle id="t_14" type="t__truck" depart="70.00" departLane="best" departPos="random" departSpeed="max">
        <route edges="left0A0 A0B0 B0C0 C0D0 D0E0 E0F0 F0F1 F1F2 F2F3 F3F4 F4F5 F5G5 G5H5"/>
    </vehicle>
    <vehicle id="t_15" type="t__truck" depart="75.00" departLane="best" departPos="random" departSpeed="max">
        <route edges="G5H5 H5H4 H4H3 H3H2 H2H1 H1G1 G1F1 F1E1 E1D1 D1C1 C1B1 B1A1 A1left1"/>
    </vehicle>
    <vehicle id="t_16" type="t__truck" depart="80.00" departLane="best" departPos="random" departSpeed="max">
        <route edges="C3C2 C2B2 B2B1"/>
    </vehicle>
    <vehicle id="t_17" type="t__truck" depart="85.00" departLane="best" departPos="random" departSpeed="max">
        <route edges="left3A3 A3A4 A4A5 A5top0"/>
    </vehicle>
    <vehicle id="t_18" type="t__truck" depart="90.00" departLane="best" departPos="random" departSpeed="max">
        <route edges="B2B1 B1B2 B2B3 B3B4 B4B5"/>
    </vehicle>
    <vehicle id="t_19" type="t__truck" depart="95.00" departLane="best" departPos="random" departSpeed="max">
        <route edges="H1H0 H0G0 G0F0 F0E0 E0D0 D0C0 C0B0 B0B1 B1B2 B2B3 B3B4"/>
    </vehicle>
    <vehicle id="t_20" type="t__truck" depart="100.00" departLane="best" departPos="random" departSpeed="max">
        <route edges="top4E5 E5E4 E4E3 E3E2 E2D2 D2C2 C2D2"/>
    </vehicle>
    <vehicle id="t_21" type="t__truck" depart="105.00" departLane="best" departPos="random" departSpeed="max">
        <route edges="F5F4 F4F3 F3E3 E3D3 D3C3 C3B3 B3A3"/>
    </vehicle>
    <vehicle id="t_22" type="t__truck" depart="110.00" departLane="best" departPos="random" departSpeed="max">
        <route edges="C4D4 D4E4 E4E5 E5F5 F5G5 G5H5"/>
    </vehicle>
    <vehicle id="t_23" type="t__truck" depart="115.00" departLane="best" departPos="random" departSpeed="max">
        <route edges="top7H5 H5G5 G5F5 F5E5 E5D5 D5C5 C5B5 B5C5"/>
    </vehicle>
    <vehicle id="t_24" type="t__truck" depart="120.00" departLane="best" departPos="random" departSpeed="max">
        <route edges="D2C2 C2B2 B2A2 A2left2"/>
    </vehicle>
    <vehicle id="t_25" type="t__truck" depart="125.00" departLane="best" departPos="random" departSpeed="max">
        <route edges="B5C5 C5D5 D5D4 D4D3 D3D2 D2D1 D1D0 D0D1"/>
    </vehicle>
    <vehicle id="t_26" type="t__truck" depart="130.00" departLane="best" departPos="random" departSpeed="max">
        <route edges="E4F4 F4F3 F3E3 E3E2"/>
    </vehicle>
    <vehicle id="t_27" type="t__truck" depart="135.00" departLane="best" departPos="random" departSpeed="max">
        <route edges="D2C2 C2C1 C1B1 B1B2"/>
    </vehicle>
    <vehicle id="t_28" type="t__truck" depart="140.00" departLane="best" departPos="random" departSpeed="max">
        <route edges="F0G0 G0F0 F0E0 E0D0 D0C0 C0C1 C1C2 C2C3 C3C4 C4C5"/>
    </vehicle>
    <vehicle id="t_29" type="t__truck" depart="145.00" departLane="best" departPos="random" departSpeed="max">
        <route edges="D1E1 E1F1 F1G1 G1H1 H1H2 H2H3 H3H4 H4H5"/>
    </vehicle>
    <vehicle id="t_30" type="t__truck" depart="150.00" departLane="best" departPos="random" departSpeed="max">
        <route edges="F2F1 F1F0 F0E0 E0D0 D0C0 C0B0 B0A0 A0bottom0"/>
    </vehicle>
    <vehicle id="t_31" type="t__truck" depart="155.00" departLane="best" departPos="random" departSpeed="max">
        <route edges="right5H5 H5H4 H4H5"/>
    </vehicle>
    <vehicle id="t_32" type="t__truck" depart="160.00" departLane="best" departPos="random" departSpeed="max">
        <route edges="D3E3 E3E4 E4E5 E5F5 F5G5 G5H5 H5G5"/>
    </vehicle>
    <vehicle id="t_33" type="t__truck" depart="165.00" departLane="best" departPos="random" departSpeed="max">
        <route edges="B1B0 B0B1 B1B2 B2C2 C2D2 D2E2 E2F2 F2G2 G2H2 H2G2"/>
    </vehicle>
    <vehicle id="t_34" type="t__truck" depart="170.00" departLane="best" departPos="random" departSpeed="max">
        <route edges="B4B3 B3B4 B4B5 B5C5 C5D5 D5E5 E5F5 F5G5 G5G4"/>
    </vehicle>
    <vehicle id="t_35" type="t__truck" depart="175.00" departLane="best" departPos="random" departSpeed="max">
        <route edges="G1G0 G0G1 G1G2 G2G3 G3G4 G4H4 H4G4"/>
    </vehicle>
    <vehicle id="t_36" type="t__truck" depart="180.00" departLane="best" departPos="random" departSpeed="max">
        <route edges="C5C4 C4D4 D4E4 E4F4 F4F3 F3F2 F2F1 F1F0"/>
    </vehicle>
    <vehicle id="t_37" type="t__truck" depart="185.00" departLane="best" departPos="random" departSpeed="max">
        <route edges="right2H2 H2H1 H1H0 H0G0 G0F0 F0E0 E0D0 D0C0 C0B0 B0A0"/>
    </vehicle>
    <vehicle id="t_38" type="t__truck" depart="190.00" departLane="best" departPos="random" departSpeed="max">
        <route edges="B5A5 A5B5 B5C5 C5D5 D5E5 E5E4 E4E3 E3E2 E2E3"/>
    </vehicle>
    <vehicle id="t_39" type="t__truck" depart="195.00" departLane="best" departPos="random" departSpeed="max">
        <route edges="B2B3 B3B2 B2A2 A2B2"/>
    </vehicle>
    <vehicle id="t_40" type="t__truck" depart="200.00" departLane="best" departPos="random" departSpeed="max">
        <route edges="A1A0 A0A1 A1B1 B1C1 C1C2 C2C3 C3C4 C4C5"/>
    </vehicle>
    <vehicle id="t_41" type="t__truck" depart="205.00" departLane="best" departPos="random" departSpeed="max">
        <route edges="F5F4 F4E4 E4D4 D4D3"/>
    </vehicle>
    <vehicle id="t_42" type="t__truck" depart="210.00" departLane="best" departPos="random" departSpeed="max">
        <route edges="F3E3 E3E2 E2E1 E1D1 D1C1 C1B1 B1A1 A1A2"/>
    </vehicle>
    <vehicle id="t_43" type="t__truck" depart="215.00" departLane="best" departPos="random" departSpeed="max">
        <route edges="B1A1 A1A2 A2A3 A3B3 B3C3 C3D3 D3E3 E3D3"/>
    </vehicle>
    <vehicle id="t_44" type="t__truck" depart="220.00" departLane="best" departPos="random" departSpeed="max">
        <route edges="B3C3 C3C2 C2B2 B2A2 A2A1 A1A0 A0bottom0"/>
    </vehicle>
    <vehicle id="t_45" type="t__truck" depart="225.00" departLane="best" departPos="random" departSpeed="max">
        <route edges="A4A3 A3A2 A2A1 A1B1 B1C1 C1D1 D1E1 E1F1 F1F0"/>
    </vehicle>
    <vehicle id="t_46" type="t__truck" depart="230.00" departLane="best" departPos="random" departSpeed="max">
        <route edges="top0A5 A5B5 B5C5 C5D5 D5top3"/>
    </vehicle>
    <vehicle id="t_47" type="t__truck" depart="235.00" departLane="best" departPos="random" departSpeed="max">
        <route edges="A0B0 B0B1 B1B2 B2B3 B3B2"/>
    </vehicle>
    <vehicle id="t_48" type="t__truck" depart="240.00" departLane="best" departPos="random" departSpeed="max">
        <route edges="G1G0 G0G1 G1G2 G2F2"/>
    </vehicle>
    <vehicle id="t_49" type="t__truck" depart="245.00" departLane="best" departPos="random" departSpeed="max">
        <route edges="C0C1 C1C2 C2C3 C3C4 C4D4 D4D3"/>
    </vehicle>
    <vehicle id="t_50" type="t__truck" depart="250.00" departLane="best" departPos="random" departSpeed="max">
        <route edges="A2A3 A3B3 B3B2 B2B1 B1C1 C1D1 D1E1 E1F1"/>
    </vehicle>
    <vehicle id="t_51" type="t__truck" depart="255.00" departLane="best" departPos="random" departSpeed="max">
        <route edges="G5F5 F5E5 E5D5 D5top3"/>
    </vehicle>
    <vehicle id="t_52" type="t__truck" depart="260.00" departLane="best" departPos="random" departSpeed="max">
        <route edges="H1G1 G1F1 F1E1 E1D1 D1D2 D2D3 D3D4 D4D5 D5C5 C5B5 B5A5"/>
    </vehicle>
    <vehicle id="t_53" type="t__truck" depart="265.00" departLane="best" departPos="random" departSpeed="max">
        <route edges="G0G1 G1F1 F1E1 E1D1 D1D2 D2D3 D3D4 D4D5"/>
    </vehicle>
    <vehicle id="t_54" type="t__truck" depart="270.00" departLane="best" departPos="random" departSpeed="max">
        <route edges="F3E3 E3D3 D3C3 C3B3 B3A3 A3A4"/>
    </vehicle>
    <vehicle id="t_55" type="t__truck" depart="275.00" departLane="best" departPos="random" departSpeed="max">
        <route edges="E1E2 E2E3 E3E4 E4E5 E5top4"/>
    </vehicle>
    <vehicle id="t_56" type="t__truck" depart="280.00" departLane="best" departPos="random" departSpeed="max">
        <route edges="C1D1 D1E1 E1E2 E2E3"/>
    </vehicle>
    <vehicle id="t_57" type="t__truck" depart="285.00" departLane="best" departPos="random" departSpeed="max">
        <route edges="A1A2 A2B2 B2C2 C2D2 D2C2"/>
    </vehicle>
    <vehicle id="t_58" type="t__truck" depart="290.00" departLane="best" departPos="random" departSpeed="max">
        <route edges="right2H2 H2G2 G2G1 G1F1 F1E1"/>
    </vehicle>
    <vehicle id="t_59" type="t__truck" depart="295.00" departLane="best" departPos="random" departSpeed="max">
        <route edges="E4D4 D4D5 D5E5 E5F5 F5G5 G5top6"/>
    </vehicle>
    <vehicle id="t_60" type="t__truck" depart="300.00" departLane="best" departPos="random" departSpeed="max">
        <route edges="G2F2 F2F1 F1F0 F0E0 E0E1"/>
    </vehicle>
    <vehicle id="t_61" type="t__truck" depart="305.00" departLane="best" departPos="random" departSpeed="max">
        <route edges="D3D2 D2D3 D3D4 D4D5 D5E5 E5F5 F5G5 G5top6"/>
    </vehicle>
    <vehicle id="t_62" type="t__truck" depart="310.00" departLane="best" departPos="random" departSpeed="max">
        <route edges="F1F0 F0E0 E0D0 D0D1 D1D2 D2D3 D3D4 D4D5 D5D4"/>
    </vehicle>
    <vehicle id="t_63" type="t__truck" depart="315.00" departLane="best" departPos="random" departSpeed="max">
        <route edges="D3C3 C3B3 B3B2 B2B1 B1B0"/>
    </vehicle>
    <vehicle id="t_64" type="t__truck" depart="320.00" departLane="best" departPos="random" departSpeed="max">
        <route edges="B5B4 B4C4 C4D4 D4E4 E4F4"/>
    </vehicle>
    <vehicle id="t_65" type="t__truck" depart="325.00" departLane="best" departPos="random" departSpeed="max">
        <route edges="E5F5 F5G5 G5G4 G4G3 G3G2 G2G1 G1F1"/>
    </vehicle>
    <vehicle id="t_66" type="t__truck" depart="330.00" departLane="best" departPos="random" departSpeed="max">
        <route edges="E1E0 E0D0 D0D1"/>
    </vehicle>
    <vehicle id="t_67" type="t__truck" depart="335.00" departLane="best" departPos="random" departSpeed="max">
        <route edges="F0G0 G0F0 F0E0 E0D0 D0C0 C0B0"/>
    </vehicle>
    <vehicle id="t_68" type="t__truck" depart="340.00" departLane="best" departPos="random" departSpeed="max">
        <route edges="top0A5 A5A4 A4A3 A3A2 A2B2 B2C2 C2D2 D2E2 E2F2 F2F1 F1F0 F0F1"/>
    </vehicle>
    <vehicle id="t_69" type="t__truck" depart="345.00" departLane="best" departPos="random" departSpeed="max">
        <route edges="C5B5 B5C5 C5D5 D5E5"/>
    </vehicle>
    <vehicle id="t_70" type="t__truck" depart="350.00" departLane="best" departPos="random" departSpeed="max">
        <route edges="H4H5 H5H4 H4H3 H3H4"/>
    </vehicle>
    <vehicle id="t_71" type="t__truck" depart="355.00" departLane="best" departPos="random" departSpeed="max">
        <route edges="G2G1 G1H1 H1H0 H0G0"/>
    </vehicle>
    <vehicle id="t_72" type="t__truck" depart="360.00" departLane="best" departPos="random" departSpeed="max">
        <route edges="H2H1 H1G1 G1F1 F1E1 E1D1 D1C1 C1C2 C2C3 C3C4 C4C5 C5D5"/>
    </vehicle>
    <vehicle id="t_73" type="t__truck" depart="365.00" departLane="best" departPos="random" departSpeed="max">
        <route edges="D5D4 D4D3"/>
    </vehicle>
    <vehicle id="t_74" type="t__truck" depart="370.00" departLane="best" departPos="random" departSpeed="max">
        <route edges="A3A4 A4B4 B4C4 C4D4 D4E4 E4E3"/>
    </vehicle>
    <vehicle id="t_75" type="t__truck" depart="375.00" departLane="best" departPos="random" departSpeed="max">
        <route edges="F0G0 G0G1 G1H1"/>
    </vehicle>
    <vehicle id="t_76" type="t__truck" depart="380.00" departLane="best" departPos="random" departSpeed="max">
        <route edges="D1D2 D2D3 D3D4 D4E4 E4F4 F4G4 G4H4 H4right4"/>
    </vehicle>
    <vehicle id="t_77" type="t__truck" depart="385.00" departLane="best" departPos="random" departSpeed="max">
        <route edges="G4F4 F4F3 F3E3 E3F3"/>
    </vehicle>
    <vehicle id="t_78" type="t__truck" depart="390.00" departLane="best" departPos="random" departSpeed="max">
        <route edges="C1C2 C2D2 D2E2 E2F2 F2G2 G2H2 H2right2"/>
    </vehicle>
    <vehicle id="t_79" type="t__truck" depart="395.00" departLane="best" departPos="random" departSpeed="max">
        <route edges="G1G2 G2G1 G1G0 G0F0 F0F1"/>
    </vehicle>
    <vehicle id="t_80" type="t__truck" depart="400.00" departLane="best" departPos="random" departSpeed="max">
        <route edges="B5C5 C5C4 C4C3 C3B3 B3B4"/>
    </vehicle>
    <vehicle id="t_81" type="t__truck" depart="405.00" departLane="best" departPos="random" departSpeed="max">
        <route edges="B5C5 C5D5 D5E5 E5F5 F5G5 G5H5 H5H4 H4H3 H3H2 H2G2"/>
    </vehicle>
    <vehicle id="t_82" type="t__truck" depart="410.00" departLane="best" departPos="random" departSpeed="max">
        <route edges="E1D1 D1D2 D2E2 E2F2 F2F3 F3F4"/>
    </vehicle>
    <vehicle id="t_83" type="t__truck" depart="415.00" departLane="best" departPos="random" departSpeed="max">
        <route edges="G1H1 H1G1 G1G2 G2H2"/>
    </vehicle>
    <vehicle id="t_84" type="t__truck" depart="420.00" departLane="best" departPos="random" departSpeed="max">
        <route edges="C4C5 C5C4 C4C3 C3B3 B3B4"/>
    </vehicle>
    <vehicle id="t_85" type="t__truck" depart="425.00" departLane="best" departPos="random" departSpeed="max">
        <route edges="top0A5 A5A4 A4B4 B4B3 B3B2 B2B1 B1B0 B0bottom1"/>
    </vehicle>
    <vehicle id="t_86" type="t__truck" depart="430.00" departLane="best" departPos="random" departSpeed="max">
        <route edges="top7H5 H5H4 H4H3 H3H2 H2H1 H1G1 G1F1 F1E1 E1D1 D1C1"/>
    </vehicle>
    <vehicle id="t_87" type="t__truck" depart="435.00" departLane="best" departPos="random" departSpeed="max">
        <route edges="A1B1 B1B2 B2C2 C2C1"/>
    </vehicle>
    <vehicle id="t_88" type="t__truck" depart="440.00" departLane="best" departPos="random" departSpeed="max">
        <route edges="G5H5 H5H4 H4H3 H3H2 H2G2 G2F2 F2E2 E2D2 D2D1 D1D0"/>
    </vehicle>
    <vehicle id="t_89" type="t__truck" depart="445.00" departLane="best" departPos="random" departSpeed="max">
        <route edges="B2C2 C2B2 B2A2 A2A3 A3B3"/>
    </vehicle>
    <vehicle id="t_90" type="t__truck" depart="450.00" departLane="best" departPos="random" departSpeed="max">
        <route edges="A3A4 A4B4 B4C4 C4D4 D4E4 E4E3 E3E2"/>
    </vehicle>
    <vehicle id="t_91" type="t__truck" depart="455.00" departLane="best" departPos="random" departSpeed="max">
        <route edges="D2E2 E2F2 F2F3"/>
    </vehicle>
    <vehicle id="t_92" type="t__truck" depart="460.00" departLane="best" departPos="random" departSpeed="max">
        <route edges="B2B1 B1C1 C1C2"/>
    </vehicle>
    <vehicle id="t_93" type="t__truck" depart="465.00" departLane="best" departPos="random" departSpeed="max">
        <route edges="F0G0 G0F0 F0E0 E0D0 D0C0 C0C1 C1C2 C2C3 C3C4"/>
    </vehicle>
    <vehicle id="t_94" type="t__truck" depart="470.00" departLane="best" departPos="random" departSpeed="max">
        <route edges="G2F2 F2F1 F1F0 F0E0 E0D0 D0C0 C0D0"/>
    </vehicle>
    <vehicle id="t_95" type="t__truck" depart="475.00" departLane="best" departPos="random" departSpeed="max">
        <route edges="G4H4 H4H3 H3H2 H2H1 H1G1 G1F1 F1G1"/>
    </vehicle>
    <vehicle id="t_96" type="t__truck" depart="480.00" departLane="best" departPos="random" departSpeed="max">
        <route edges="D5C5 C5D5 D5E5 E5F5 F5F4 F4F3 F3G3"/>
    </vehicle>
    <vehicle id="t_97" type="t__truck" depart="485.00" departLane="best" departPos="random" departSpeed="max">
        <route edges="D1E1 E1F1 F1F2 F2G2 G2H2 H2G2"/>
    </vehicle>
    <vehicle id="t_98" type="t__truck" depart="490.00" departLane="best" departPos="random" departSpeed="max">
        <route edges="G4G3 G3G2 G2G1 G1F1 F1E1 E1D1 D1C1 C1C2"/>
    </vehicle>
    <vehicle id="t_99" type="t__truck" depart="495.00" departLane="best" departPos="random" departSpeed="max">
        <route edges="H5H4 H4H3 H3H2 H2H1 H1H0 H0G0 G0F0 F0E0"/>
    </vehicle>
    <vehicle id="t_100" type="t__truck" depart="500.00" departLane="best" departPos="random" departSpeed="max">
        <route edges="bottom1B0 B0B1 B1B2 B2B3 B3B4 B4C4 C4D4 D4E4 E4F4 F4E4"/>
    </vehicle>
    <vehicle id="t_101" type="t__truck" depart="505.00" departLane="best" departPos="random" departSpeed="max">
        <route edges="left3A3 A3B3 B3C3 C3D3 D3E3 E3E2 E2D2"/>
    </vehicle>
    <vehicle id="t_102" type="t__truck" depart="510.00" departLane="best" departPos="random" departSpeed="max">
        <route edges="D1E1 E1E2 E2E3 E3E4 E4E5 E5F5 F5F4"/>
    </vehicle>
    <vehicle id="t_103" type="t__truck" depart="515.00" departLane="best" departPos="random" departSpeed="max">
        <route edges="left5A5 A5B5 B5C5 C5D5 D5E5 E5E4 E4E3 E3E2 E2E1 E1D1"/>
    </vehicle>
    <vehicle id="t_104" type="t__truck" depart="520.00" departLane="best" departPos="random" departSpeed="max">
        <route edges="G3F3 F3F4 F4F5 F5E5 E5D5"/>
    </vehicle>
    <vehicle id="t_105" type="t__truck" depart="525.00" departLane="best" departPos="random" departSpeed="max">
        <route edges="D1C1 C1B1 B1B2 B2B3 B3B4"/>
    </vehicle>
    <vehicle id="t_106" type="t__truck" depart="530.00" departLane="best" departPos="random" departSpeed="max">
        <route edges="F4E4 E4E3 E3E2 E2D2 D2C2 C2B2 B2A2"/>
    </vehicle>
    <vehicle id="t_107" type="t__truck" depart="535.00" departLane="best" departPos="random" departSpeed="max">
        <route edges="E1D1 D1E1 E1F1 F1G1 G1F1"/>
    </vehicle>
    <vehicle id="t_108" type="t__truck" depart="540.00" departLane="best" departPos="random" departSpeed="max">
        <route edges="D3D4 D4D3 D3D2 D2E2"/>
    </vehicle>
    <vehicle id="t_109" type="t__truck" depart="545.00" departLane="best" departPos="random" departSpeed="max">
        <route edges="top1B5 B5B4 B4C4 C4D4 D4E4 E4E3"/>
    </vehicle>
    <vehicle id="t_110" type="t__truck" depart="550.00" departLane="best" departPos="random" departSpeed="max">
        <route edges="E5F5 F5F4 F4F3 F3E3 E3D3 D3C3 C3B3 B3B2"/>
    </vehicle>
    <vehicle id="t_111" type="t__truck" depart="555.00" departLane="best" departPos="random" departSpeed="max">
        <route edges="G4G5 G5F5 F5E5 E5D5 D5C5 C5D5"/>
    </vehicle>
    <vehicle id="t_112" type="t__truck" depart="560.00" departLane="best" departPos="random" departSpeed="max">
        <route edges="G3F3 F3G3 G3H3 H3right3"/>
    </vehicle>
    <vehicle id="t_113" type="t__truck" depart="565.00" departLane="best" departPos="random" departSpeed="max">
        <route edges="H4G4 G4F4 F4E4 E4D4 D4C4 C4B4 B4B5"/>
    </vehicle>
    <vehicle id="t_114" type="t__truck" depart="570.00" departLane="best" departPos="random" departSpeed="max">
        <route edges="right0H0 H0G0 G0F0 F0F1 F1G1"/>
    </vehicle>
    <vehicle id="t_115" type="t__truck" depart="575.00" departLane="best" departPos="random" departSpeed="max">
        <route edges="B4B5 B5B4 B4A4 A4A3 A3A2 A2A1"/>
    </vehicle>
    <vehicle id="t_116" type="t__truck" depart="580.00" departLane="best" departPos="random" departSpeed="max">
        <route edges="C2C3 C3C4 C4D4 D4E4 E4D4"/>
    </vehicle>
    <vehicle id="t_117" type="t__truck" depart="585.00" departLane="best" departPos="random" departSpeed="max">
        <route edges="E3D3 D3D2 D2D1 D1D0 D0C0 C0B0 B0A0 A0A1"/>
    </vehicle>
    <vehicle id="t_118" type="t__truck" depart="590.00" departLane="best" departPos="random" departSpeed="max">
        <route edges="right4H4 H4G4 G4F4 F4E4 E4D4 D4C4 C4B4 B4A4 A4A3 A3A2"/>
    </vehicle>
    <vehicle id="t_119" type="t__truck" depart="595.00" departLane="best" departPos="random" departSpeed="max">
        <route edges="H4H5 H5G5 G5F5 F5E5 E5D5 D5top3"/>
    </vehicle>
    <vehicle id="t_120" type="t__truck" depart="600.00" departLane="best" departPos="random" departSpeed="max">
        <route edges="H2G2 G2H2"/>
    </vehicle>
    <vehicle id="t_121" type="t__truck" depart="605.00" departLane="best" departPos="random" departSpeed="max">
        <route edges="G2F2 F2F1 F1F0 F0E0 E0D0 D0C0"/>
    </vehicle>
    <vehicle id="t_122" type="t__truck" depart="610.00" departLane="best" departPos="random" departSpeed="max">
        <route edges="E4E5 E5E4 E4E3 E3D3 D3C3 C3B3 B3C3"/>
    </vehicle>
    <vehicle id="t_123" type="t__truck" depart="615.00" departLane="best" departPos="random" departSpeed="max">
        <route edges="C3C2 C2B2 B2A2 A2A1 A1A0"/>
    </vehicle>
    <vehicle id="t_124" type="t__truck" depart="620.00" departLane="best" departPos="random" departSpeed="max">
        <route edges="D2E2 E2F2 F2G2 G2H2 H2H1 H1H0"/>
    </vehicle>
    <vehicle id="t_125" type="t__truck" depart="625.00" departLane="best" departPos="random" departSpeed="max">
        <route edges="G3G2 G2F2 F2E2 E2D2 D2C2 C2B2 B2A2 A2left2"/>
    </vehicle>
    <vehicle id="t_126" type="t__truck" depart="630.00" departLane="best" departPos="random" departSpeed="max">
        <route edges="D1D2 D2E2"/>
    </vehicle>
    <vehicle id="t_127" type="t__truck" depart="635.00" departLane="best" departPos="random" departSpeed="max">
        <route edges="E4F4 F4F3 F3F2 F2F1 F1F0 F0E0 E0E1"/>
    </vehicle>
    <vehicle id="t_128" type="t__truck" depart="640.00" departLane="best" departPos="random" departSpeed="max">
        <route edges="H4H3 H3G3 G3F3 F3E3 E3D3 D3C3 C3B3 B3B2"/>
    </vehicle>
    <vehicle id="t_129" type="t__truck" depart="645.00" departLane="best" departPos="random" departSpeed="max">
        <route edges="F4G4 G4G3 G3G2 G2G1 G1F1 F1E1"/>
    </vehicle>
    <vehicle id="t_130" type="t__truck" depart="650.00" departLane="best" departPos="random" departSpeed="max">
        <route edges="A1A2 A2B2 B2B1 B1B0"/>
    </vehicle>
    <vehicle id="t_131" type="t__truck" depart="655.00" departLane="best" departPos="random" departSpeed="max">
        <route edges="B1C1 C1C2 C2C3 C3C4 C4C5 C5D5 D5E5 E5F5"/>
    </vehicle>
    <vehicle id="t_132" type="t__truck" depart="660.00" departLane="best" departPos="random" departSpeed="max">
        <route edges="bottom0A0 A0B0 B0C0 C0D0 D0E0 E0F0 F0G0 G0H0 H0H1"/>
    </vehicle>
    <vehicle id="t_133" type="t__truck" depart="665.00" departLane="best" departPos="random" departSpeed="max">
        <route edges="H4H3 H3G3 G3F3 F3E3 E3E2 E2E1"/>
    </vehicle>
    <vehicle id="t_134" type="t__truck" depart="670.00" departLane="best" departPos="random" departSpeed="max">
        <route edges="F3G3 G3G2 G2G1 G1F1 F1G1"/>
    </vehicle>
    <vehicle id="t_135" type="t__truck" depart="675.00" departLane="best" departPos="random" departSpeed="max">
        <route edges="C5B5 B5C5 C5D5 D5D4"/>
    </vehicle>
    <vehicle id="t_136" type="t__truck" depart="680.00" departLane="best" departPos="random" departSpeed="max">
        <route edges="B2B3 B3C3 C3D3"/>
    </vehicle>
    <vehicle id="t_137" type="t__truck" depart="685.00" departLane="best" departPos="random" departSpeed="max">
        <route edges="D2E2 E2F2 F2F3 F3G3 G3H3 H3right3"/>
    </vehicle>
    <vehicle id="t_138" type="t__truck" depart="690.00" departLane="best" departPos="random" departSpeed="max">
        <route edges="C0D0 D0D1 D1D2 D2D3 D3D4 D4D5 D5D4"/>
    </vehicle>
    <vehicle id="t_139" type="t__truck" depart="695.00" departLane="best" departPos="random" departSpeed="max">
        <route edges="A4A3 A3A2 A2left2"/>
    </vehicle>
    <vehicle id="t_140" type="t__truck" depart="700.00" departLane="best" departPos="random" departSpeed="max">
        <route edges="E4E5 E5E4 E4E3"/>
    </vehicle>
    <vehicle id="t_141" type="t__truck" depart="705.00" departLane="best" departPos="random" departSpeed="max">
        <route edges="E4F4 F4G4 G4G5 G5H5 H5H4"/>
    </vehicle>
    <vehicle id="t_142" type="t__truck" depart="710.00" departLane="best" departPos="random" departSpeed="max">
        <route edges="E2E3 E3F3 F3F2 F2F1 F1F0 F0E0"/>
    </vehicle>
    <vehicle id="t_143" type="t__truck" depart="715.00" departLane="best" departPos="random" departSpeed="max">
        <route edges="bottom4E0 E0D0 D0C0 C0B0 B0A0"/>
    </vehicle>
    <vehicle id="t_144" type="t__truck" depart="720.00" departLane="best" departPos="random" departSpeed="max">
        <route edges="G5H5 H5H4 H4H3 H3H2 H2H1 H1H0 H0G0 G0F0 F0E0 E0D0 D0C0 C0B0 B0B1"/>
    </vehicle>
    <vehicle id="t_145" type="t__truck" depart="725.00" departLane="best" departPos="random" departSpeed="max">
        <route edges="bottom5F0 F0G0 G0G1"/>
    </vehicle>
    <vehicle id="t_146" type="t__truck" depart="730.00" departLane="best" departPos="random" departSpeed="max">
        <route edges="H0H1 H1H2 H2H3 H3H4 H4H5 H5G5 G5F5"/>
    </vehicle>
    <vehicle id="t_147" type="t__truck" depart="735.00" departLane="best" departPos="random" departSpeed="max">
        <route edges="A3A2 A2A3 A3A4 A4A3"/>
    </vehicle>
    <vehicle id="t_148" type="t__truck" depart="740.00" departLane="best" departPos="random" departSpeed="max">
        <route edges="D5D4 D4C4 C4B4 B4A4 A4A3 A3A2"/>
    </vehicle>
    <vehicle id="t_149" type="t__truck" depart="745.00" departLane="best" departPos="random" departSpeed="max">
        <route edges="left2A2 A2B2 B2B1"/>
    </vehicle>
    <vehicle id="t_150" type="t__truck" depart="750.00" departLane="best" departPos="random" departSpeed="max">
        <route edges="C1D1 D1D2 D2D3 D3D4 D4E4 E4F4 F4G4"/>
    </vehicle>
    <vehicle id="t_151" type="t__truck" depart="755.00" departLane="best" departPos="random" departSpeed="max">
        <route edges="B1B0 B0B1 B1B2 B2B3 B3B4 B4B5 B5C5 C5D5 D5E5 E5F5 F5G5 G5G4"/>
    </vehicle>
    <vehicle id="t_152" type="t__truck" depart="760.00" departLane="best" departPos="random" departSpeed="max">
        <route edges="D2C2 C2D2 D2E2 E2E1 E1E2"/>
    </vehicle>
    <vehicle id="t_153" type="t__truck" depart="765.00" departLane="best" departPos="random" departSpeed="max">
        <route edges="H4H3 H3G3 G3F3 F3E3 E3D3 D3C3 C3B3 B3A3 A3A4"/>
    </vehicle>
    <vehicle id="t_154" type="t__truck" depart="770.00" departLane="best" departPos="random" departSpeed="max">
        <route edges="C2D2 D2D1 D1D0 D0D1"/>