<?xml version="1.0" encoding="UTF-8"?>

<!-- generated on 2026-03-24 16:17:10.071418 by randomTrips.py UNKNOWN
<configuration>
    <net-file value="sumo/networks/hackathon_demo.net.xml"/>
    <route-file value="sumo/routes/hackathon_demo_passenger.rou.xml"/>
    <prefix value="p_"/>
    <trip-attributes value="departLane=&quot;best&quot; departSpeed=&quot;max&quot; departPos=&quot;random&quot;"/>
    <fringe-factor value="8"/>
    <seed value="101"/>
    <end value="1800.0"/>
    <period value="1.0 0.6 1.4"/>
</configuration>
-->

<!-- generated on 2026-03-24 16:17:10 by Eclipse SUMO duarouter Version 1.18.0
<configuration xmlns:xsi="http://www.w3.org/2001/XMLSchema-instance" xsi:noNamespaceSchemaLocation="http://sumo.dlr.de/xsd/duarouterConfiguration.xsd">

    <input>
        <net-file value="sumo/networks/hackathon_demo.net.xml"/>
        <route-files value="trips.trips.xml"/>
    </input>

    <output>
        <output-file value="sumo/routes/hackathon_demo_passenger.rou.xml"/>
        <alternatives-output value="NUL"/>
    </output>

    <time>
        <begin value="0.0"/>
        <end value="1800.0"/>
    </time>

    <report>
        <no-warnings value="true"/>
        <ignore-errors value="true"/>
        <no-step-log value="true"/>
    </report>

</configuration>
-->

<routes xmlns:xsi="http://www.w3.org/2001/XMLSchema-instance" xsi:noNamespaceSchemaLocation="http://sumo.dlr.de/xsd/routes_file.xsd">
    <vehicle id="p_0" depart="0.00" departLane="best" departPos="random" departSpeed="max">
        <route edges="bottom7H0 H0H1 H1H2 H2G2 G2F2 F2E2 E2D2 D2C2 C2B2 B2A2 A2A3 A3A4 A4A5 A5top0"/>
    </vehicle>
    <vehicle id="p_1" depart="1.00" departLane="best" departPos="random" departSpeed="max">
        <route edges="top6G5 G5G4 G4G3 G3H3 H3right3"/>
    </vehicle>
    <vehicle id="p_2" depart="2.00" departLane="best" departPos="random" departSpeed="max">
        <route edges="bottom2C0 C0D0 D0E0 E0F0 F0F1 F1F2 F2F3 F3F4 F4F5"/>
    </vehicle>
    <vehicle id="p_3" depart="3.00" departLane="best" departPos="random" departSpeed="max">
        <route edges="E0E1 E1E0 E0D0 D0C0 C0B0 B0bottom1"/>
    </vehicle>
    <vehicle id="p_4" depart="4.00" departLane="best" departPos="random" departSpeed="max">
        <route edges="F2E2 E2E3 E3F3 F3F4 F4F5 F5top5"/>
    </vehicle>
    <vehicle id="p_5" depart="5.00" departLane="best" departPos="random" departSpeed="max">
        <route edges="E0D0 D0D1 D1D2 D2D3 D3D4 D4D5 D5E5 E5F5 F5G5 G5H5 H5right5"/>
    </vehicle>
    <vehicle id="p_6" depart="6.00" departLane="best" departPos="random" departSpeed="max">
        <route edges="B3A3 A3A4 A4A5 A5top0"/>
    </vehicle>
    <vehicle id="p_7" depart="7.00" departLane="best" departPos="random" departSpeed="max">
        <route edges="B4C4 C4D4 D4D5 D5E5 E5F5 F5G5 G5G4"/>
    </vehicle>
    <vehicle id="p_8" depart="8.00" departLane="best" departPos="random" departSpeed="max">
        <route edges="G4G3 G3F3 F3F4 F4F5 F5E5 E5D5 D5C5"/>
    </vehicle>
    <vehicle id="p_9" depart="9.00" departLane="best" departPos="random" departSpeed="max">
        <route edges="G0F0 F0F1 F1F2 F2E2"/>
    </vehicle>
    <vehicle id="p_10" depart="10.00" departLane="best" departPos="random" departSpeed="max">
        <route edges="H3G3 G3G2 G2G1 G1G0 G0F0 F0E0 E0D0 D0C0 C0B0 B0A0"/>
    </vehicle>
    <vehicle id="p_11" depart="11.00" departLane="best" departPos="random" departSpeed="max">
        <route edges="bottom0A0 A0B0 B0C0 C0B0"/>
    </vehicle>
    <vehicle id="p_12" depart="12.00" departLane="best" departPos="random" departSpeed="max">
        <route edges="C1C0 C0D0 D0E0 E0F0 F0G0 G0H0 H0right0"/>
    </vehicle>
    <vehicle id="p_13" depart="13.00" departLane="best" departPos="random" departSpeed="max">
        <route edges="left4A4 A4B4 B4C4 C4D4 D4E4 E4F4 F4F5"/>
    </vehicle>
    <vehicle id="p_14" depart="14.00" departLane="best" departPos="random" departSpeed="max">
        <route edges="top2C5 C5top2"/>
    </vehicle>
    <vehicle id="p_15" depart="15.00" departLane="best" departPos="random" departSpeed="max">
        <route edges="G5H5 H5H4 H4H3 H3H2 H2G2 G2F2 F2E2 E2D2 D2D1 D1D0 D0bottom3"/>
    </vehicle>
    <vehicle id="p_16" depart="16.00" departLane="best" departPos="random" departSpeed="max">
        <route edges="H3G3 G3G4 G4G5 G5F5 F5E5"/>
    </vehicle>
    <vehicle id="p_17" depart="17.00" departLane="best" departPos="random" departSpeed="max">
        <route edges="A1A0 A0A1 A1A2 A2A3 A3A4 A4B4 B4C4 C4D4 D4D3"/>
    </vehicle>
    <vehicle id="p_18" depart="18.00" departLane="best" departPos="random" departSpeed="max">
        <route edges="bottom5F0 F0F1 F1E1 E1D1 D1C1 C1C2 C2C1"/>
    </vehicle>
    <vehicle id="p_19" depart="19.00" departLane="best" departPos="random" departSpeed="max">
        <route edges="A3A2 A2A1 A1A0 A0B0 B0C0 C0D0 D0E0 E0F0 F0G0 G0bottom6"/>
    </vehicle>
    <vehicle id="p_20" depart="20.00" departLane="best" departPos="random" departSpeed="max">
        <route edges="A1A2 A2A3 A3A4 A4B4 B4C4 C4D4 D4E4 E4E3"/>
    </vehicle>
    <vehicle id="p_21" depart="21.00" departLane="best" departPos="random" departSpeed="max">
        <route edges="C5D5 D5D4 D4D3 D3D2 D2D1 D1D0 D0C0 C0B0 B0A0 A0left0"/>
    </vehicle>
    <vehicle id="p_22" depart="22.00" departLane="best" departPos="random" departSpeed="max">
        <route edges="D2E2 E2E1 E1D1 D1C1 C1B1 B1A1 A1left1"/>
    </vehicle>
    <vehicle id="p_23" depart="23.00" departLane="best" departPos="random" departSpeed="max">
        <route edges="C5C4 C4C5 C5D5 D5E5 E5F5 F5top5"/>
    </vehicle>
    <vehicle id="p_24" depart="24.00" departLane="best" departPos="random" departSpeed="max">
        <route edges="right0H0 H0G0 G0F0 F0E0 E0D0 D0C0 C0C1 C1C2 C2C3 C3D3"/>
    </vehicle>
    <vehicle id="p_25" depart="25.00" departLane="best" departPos="random" departSpeed="max">
        <route edges="left3A3 A3A4 A4A5 A5B5 B5C5 C5D5 D5D4"/>
    </vehicle>
    <vehicle id="p_26" depart="26.00" departLane="best" departPos="random" departSpeed="max">
        <route edges="bottom3D0 D0E0 E0F0 F0G0 G0H0 H0H1 H1H2 H2H3"/>
    </vehicle>
    <vehicle id="p_27" depart="27.00" departLane="best" departPos="random" departSpeed="max">
        <route edges="F4F3 F3G3 G3H3 H3H2 H2G2"/>
    </vehicle>
    <vehicle id="p_28" depart="28.00" departLane="best" departPos="random" departSpeed="max">
        <route edges="left5A5 A5B5 B5C5 C5D5 D5E5 E5F5 F5top5"/>
    </vehicle>
    <vehicle id="p_29" depart="29.00" departLane="best" departPos="random" departSpeed="max">
        <route edges="A1A0 A0A1 A1A2 A2left2"/>
    </vehicle>
    <vehicle id="p_30" depart="30.00" departLane="best" departPos="random" departSpeed="max">
        <route edges="A4A5 A5B5 B5C5 C5C4 C4C3 C3C2 C2C1"/>
    </vehicle>
    <vehicle id="p_31" depart="31.00" departLane="best" departPos="random" departSpeed="max">
        <route edges="top5F5 F5F4 F4F3 F3G3 G3H3 H3H2 H2H3"/>
    </vehicle>
    <vehicle id="p_32" depart="32.00" departLane="best" departPos="random" departSpeed="max">
        <route edges="top0A5 A5A4 A4A3 A3left3"/>
    </vehicle>
    <vehicle id="p_33" depart="33.00" departLane="best" departPos="random" departSpeed="max">
        <route edges="left5A5 A5B5 B5C5 C5D5 D5E5 E5F5 F5G5 G5top6"/>
    </vehicle>
    <vehicle id="p_34" depart="34.00" departLane="best" departPos="random" departSpeed="max">
        <route edges="right4H4 H4G4 G4G5 G5top6"/>
    </vehicle>
    <vehicle id="p_35" depart="35.00" departLane="best" departPos="random" departSpeed="max">
        <route edges="C4C3 C3B3 B3B4 B4B5 B5A5 A5left5"/>
    </vehicle>
    <vehicle id="p_36" depart="36.00" departLane="best" departPos="random" departSpeed="max">
        <route edges="right3H3 H3G3 G3G2 G2G1"/>
    </vehicle>
    <vehicle id="p_37" depart="37.00" departLane="best" departPos="random" departSpeed="max">
        <route edges="top2C5 C5C4 C4D4 D4D3 D3D2 D2D3"/>
    </vehicle>
    <vehicle id="p_38" depart="38.00" departLane="best" departPos="random" departSpeed="max">
        <route edges="top2C5 C5C4 C4B4 B4A4 A4left4"/>
    </vehicle>
    <vehicle id="p_39" depart="39.00" departLane="best" departPos="random" departSpeed="max">
        <route edges="top5F5 F5F4 F4F3 F3F2 F2G2 G2H2 H2right2"/>
    </vehicle>
    <vehicle id="p_40" depart="40.00" departLane="best" departPos="random" departSpeed="max">
        <route edges="G1G0 G0F0 F0F1 F1E1 E1D1 D1C1 C1B1 B1A1 A1left1"/>
    </vehicle>
    <vehicle id="p_41" depart="41.00" departLane="best" departPos="random" departSpeed="max">
        <route edges="bottom6G0 G0G1 G1F1 F1F2 F2F3 F3F4 F4F5 F5top5"/>
    </vehicle>
    <vehicle id="p_42" depart="42.00" departLane="best" departPos="random" departSpeed="max">
        <route edges="G2G3 G3G2 G2G1 G1F1 F1E1 E1D1 D1C1 C1B1 B1A1 A1left1"/>
    </vehicle>
    <vehicle id="p_43" depart="43.00" departLane="best" departPos="random" departSpeed="max">
        <route edges="F1F0 F0G0 G0H0 H0right0"/>
    </vehicle>
    <vehicle id="p_44" depart="44.00" departLane="best" departPos="random" departSpeed="max">
        <route edges="B5A5 A5B5 B5C5 C5C4 C4D4 D4E4 E4F4 F4G4 G4H4 H4right4"/>
    </vehicle>
    <vehicle id="p_45" depart="45.00" departLane="best" departPos="random" departSpeed="max">
        <route edges="E4D4 D4C4 C4B4 B4A4 A4A5 A5top0"/>
    </vehicle>
    <vehicle id="p_46" depart="46.00" departLane="best" departPos="random" departSpeed="max">
        <route edges="C1C2 C2C3 C3C4 C4D4 D4E4 E4F4 F4G4 G4H4 H4H5 H5top7"/>
    </vehicle>
    <vehicle id="p_47" depart="47.00" departLane="best" departPos="random" departSpeed="max">
        <route edges="top3D5 D5C5 C5C4 C4C3 C3C2 C2C1 C1C0 C0bottom2"/>
    </vehicle>
    <vehicle id="p_48" depart="48.00" departLane="best" departPos="random" departSpeed="max">
        <route edges="B5C5 C5D5 D5E5 E5F5 F5F4 F4F3 F3F4"/>
    </vehicle>
    <vehicle id="p_49" depart="49.00" departLane="best" departPos="random" departSpeed="max">
        <route edges="top2C5 C5B5 B5A5 A5A4 A4A3 A3A2 A2A1 A1A0 A0bottom0"/>
    </vehicle>
    <vehicle id="p_50" depart="50.00" departLane="best" departPos="random" departSpeed="max">
        <route edges="left2A2 A2A1 A1B1 B1C1 C1D1 D1E1 E1F1 F1G1 G1H1 H1right1"/>
    </vehicle>
    <vehicle id="p_51" depart="51.00" departLane="best" departPos="random" departSpeed="max">
        <route edges="bottom1B0 B0B1 B1B2 B2B3 B3B4 B4C4 C4D4 D4E4 E4F4"/>
    </vehicle>
    <vehicle id="p_52" depart="52.00" departLane="best" departPos="random" departSpeed="max">
        <route edges="right4H4 H4G4 G4F4 F4E4 E4D4 D4C4 C4B4 B4B3 B3B2 B2B1 B1B0"/>
    </vehicle>
    <vehicle id="p_53" depart="53.00" departLane="best" departPos="random" departSpeed="max">
        <route edges="F0G0 G0F0 F0F1 F1F2 F2F3 F3F4 F4F3"/>
    </vehicle>
    <vehicle id="p_54" depart="54.00" departLane="best" departPos="random" departSpeed="max">
        <route edges="bottom6G0 G0G1 G1F1 F1E1 E1E2"/>
    </vehicle>
    <vehicle id="p_55" depart="55.00" departLane="best" departPos="random" departSpeed="max">
        <route edges="G1F1 F1F2 F2F3 F3F4 F4G4 G4H4 H4right4"/>
    </vehicle>
    <vehicle id="p_56" depart="56.00" departLane="best" departPos="random" departSpeed="max">
        <route edges="F2E2 E2E3 E3F3 F3F4 F4F5 F5top5"/>
    </vehicle>
    <vehicle id="p_57" depart="57.00" departLane="best" departPos="random" departSpeed="max">
        <route edges="top2C5 C5top2"/>
    </vehicle>
    <vehicle id="p_58" depart="58.00" departLane="best" departPos="random" departSpeed="max">
        <route edges="B1B2 B2B1 B1B0 B0bottom1"/>
    </vehicle>
    <vehicle id="p_59" depart="59.00" departLane="best" departPos="random" departSpeed="max">
        <route edges="B2B3 B3B4 B4A4 A4left4"/>
    </vehicle>
    <vehicle id="p_60" depart="60.00" departLane="best" departPos="random" departSpeed="max">
        <route edges="C2C1 C1D1"/>
    </vehicle>
    <vehicle id="p_61" depart="61.00" departLane="best" departPos="random" departSpeed="max">
        <route edges="G4G5 G5G4 G4G3 G3G2 G2F2 F2E2 E2D2 D2D3"/>
    </vehicle>
    <vehicle id="p_62" depart="62.00" departLane="best" departPos="random" departSpeed="max">
        <route edges="left3A3 A3B3 B3C3 C3D3 D3E3 E3F3 F3F4 F4F5 F5top5"/>
    </vehicle>
    <vehicle id="p_63" depart="63.00" departLane="best" departPos="random" departSpeed="max">
        <route edges="left4A4 A4B4 B4C4 C4B4"/>
    </vehicle>
    <vehicle id="p_64" depart="64.00" departLane="best" departPos="random" departSpeed="max">
        <route edges="left3A3 A3B3 B3C3 C3D3 D3E3 E3D3"/>
    </vehicle>
    <vehicle id="p_65" depart="65.00" departLane="best" departPos="random" departSpeed="max">
        <route edges="C3B3 B3C3 C3D3 D3E3 E3E2 E2E3"/>
    </vehicle>
    <vehicle id="p_66" depart="66.00" departLane="best" departPos="random" departSpeed="max">
        <route edges="F5E5 E5F5 F5top5"/>
    </vehicle>
    <vehicle id="p_67" depart="67.00" departLane="best" departPos="random" departSpeed="max">
        <route edges="right1H1 H1G1 G1F1 F1E1 E1D1 D1C1 C1B1 B1B2"/>
    </vehicle>
    <vehicle id="p_68" depart="68.00" departLane="best" departPos="random" departSpeed="max">
        <route edges="bottom0A0 A0A1 A1A2 A2A3 A3B3 B3C3 C3D3 D3D2"/>
    </vehicle>
    <vehicle id="p_69" depart="69.00" departLane="best" departPos="random" departSpeed="max">
        <route edges="F3E3 E3E2 E2E1 E1E0 E0D0 D0C0 C0B0 B0A0 A0left0"/>
    </vehicle>
    <vehicle id="p_70" depart="70.00" departLane="best" departPos="random" departSpeed="max">
        <route edges="B1A1 A1A2 A2B2 B2C2 C2D2 D2E2 E2F2 F2G2 G2H2 H2H3 H3H4 H4H5 H5top7"/>
    </vehicle>
    <vehicle id="p_71" depart="71.00" departLane="best" departPos="random" departSpeed="max">
        <route edges="right1H1 H1G1 G1F1 F1E1 E1D1 D1E1"/>
    </vehicle>
    <vehicle id="p_72" depart="72.00" departLane="best" departPos="random" departSpeed="max">
        <route edges="left3A3 A3A4 A4B4 B4B3"/>
    </vehicle>
    <vehicle id="p_73" depart="73.00" departLane="best" departPos="random" departSpeed="max">
        <route edges="left5A5 A5A4 A4B4 B4C4 C4D4 D4E4 E4F4 F4G4 G4H4 H4right4"/>
    </vehicle>
    <vehicle id="p_74" depart="74.00" departLane="best" departPos="random" departSpeed="max">
        <route edges="right3H3 H3G3 G3F3 F3E3 E3D3 D3D4 D4D3"/>
    </vehicle>
    <vehicle id="p_75" depart="75.00" departLane="best" departPos="random" departSpeed="max">
        <route edges="top7H5 H5H4 H4H3 H3right3"/>
    </vehicle>
    <vehicle id="p_76" depart="76.00" departLane="best" departPos="random" departSpeed="max">
        <route edges="B1C1 C1D1 D1D0 D0bottom3"/>
    </vehicle>
    <vehicle id="p_77" depart="77.00" departLane="best" departPos="random" departSpeed="max">
        <route edges="bottom1B0 B0B1 B1B2 B2B3 B3B4 B4C4"/>
    </vehicle>
    <vehicle id="p_78" depart="78.00" departLane="best" departPos="random" departSpeed="max">
        <route edges="left1A1 A1A2 A2A3 A3A4 A4left4"/>
    </vehicle>
    <vehicle id="p_79" depart="79.00" departLane="best" departPos="random" departSpeed="max">
        <route edges="right1H1 H1right1"/>
    </vehicle>
    <vehicle id="p_80" depart="80.00" departLane="best" departPos="random" departSpeed="max">
        <route edges="B2A2 A2A3 A3A4 A4A5 A5B5 B5C5 C5D5 D5E5 E5F5 F5top5"/>
    </vehicle>
    <vehicle id="p_81" depart="81.00" departLane="best" departPos="random" departSpeed="max">
        <route edges="E5F5 F5F4 F4F3 F3F2 F2E2"/>
    </vehicle>
    <vehicle id="p_82" depart="82.00" departLane="best" departPos="random" departSpeed="max">
        <route edges="left5A5 A5B5 B5C5 C5D5 D5E5 E5F5 F5G5 G5H5 H5right5"/>
    </vehicle>
    <vehicle id="p_83" depart="83.00" departLane="best" departPos="random" departSpeed="max">
        <route edges="right4H4 H4G4 G4G3 G3G2 G2G1 G1F1 F1E1 E1D1 D1C1 C1C2"/>
    </vehicle>
    <vehicle id="p_84" depart="84.00" departLane="best" departPos="random" departSpeed="max">
        <route edges="right0H0 H0G0 G0F0 F0E0 E0D0 D0C0 C0B0 B0A0 A0A1 A1A2 A2A3 A3A4 A4left4"/>
    </vehicle>
    <vehicle id="p_85" depart="85.00" departLane="best" departPos="random" departSpeed="max">
        <route edges="right0H0 H0G0 G0F0 F0E0 E0D0 D0bottom3"/>
    </vehicle>
    <vehicle id="p_86" depart="86.00" departLane="best" departPos="random" departSpeed="max">
        <route edges="E5E4 E4D4 D4C4 C4B4 B4B3 B3B2 B2B1 B1B0"/>
    </vehicle>
    <vehicle id="p_87" depart="87.00" departLane="best" departPos="random" departSpeed="max">
        <route edges="E0F0 F0G0 G0H0 H0G0"/>
    </vehicle>
    <vehicle id="p_88" depart="88.00" departLane="best" departPos="random" departSpeed="max">
        <route edges="B5C5 C5C4 C4B4 B4B3 B3B2 B2B1 B1B0 B0bottom1"/>
    </vehicle>
    <vehicle id="p_89" depart="89.00" departLane="best" departPos="random" departSpeed="max">
        <route edges="D3E3 E3D3 D3C3 C3C4 C4B4 B4A4 A4left4"/>
    </vehicle>
    <vehicle id="p_90" depart="90.00" departLane="best" departPos="random" departSpeed="max">
        <route edges="right0H0 H0G0 G0F0 F0E0 E0E1 E1E2 E2E3 E3E4 E4E5 E5top4"/>
    </vehicle>
    <vehicle id="p_91" depart="91.00" departLane="best" departPos="random" departSpeed="max">
        <route edges="left3A3 A3B3 B3C3 C3D3 D3E3 E3F3 F3G3 G3H3 H3H2"/>
    </vehicle>
    <vehicle id="p_92" depart="92.00" departLane="best" departPos="random" departSpeed="max">
        <route edges="bottom1B0 B0A0 A0left0"/>
    </vehicle>
    <vehicle id="p_93" depart="93.00" departLane="best" departPos="random" departSpeed="max">
        <route edges="D3D4 D4E4 E4E3 E3E2 E2E1 E1E0 E0bottom4"/>
    </vehicle>
    <vehicle id="p_94" depart="94.00" departLane="best" departPos="random" departSpeed="max">
        <route edges="right0H0 H0H1 H1H2 H2H3 H3right3"/>
    </vehicle>
    <vehicle id="p_95" depart="95.00" departLane="best" departPos="random" departSpeed="max">
        <route edges="bottom4E0 E0D0 D0C0 C0B0 B0bottom1"/>
    </vehicle>
    <vehicle id="p_96" depart="96.00" departLane="best" departPos="random" departSpeed="max">
        <route edges="left0A0 A0B0 B0C0 C0D0 D0E0 E0F0 F0G0 G0H0 H0H1 H1H2 H2H3 H3H4 H4right4"/>
    </vehicle>
    <vehicle id="p_97" depart="97.00" departLane="best" departPos="random" departSpeed="max">
        <route edges="G1F1 F1F2 F2G2 G2H2 H2H3 H3H4 H4H5"/>
    </vehicle>
    <vehicle id="p_98" depart="98.00" departLane="best" departPos="random" departSpeed="max">
        <route edges="top3D5 D5E5 E5F5"/>
    </vehicle>
    <vehicle id="p_99" depart="99.00" departLane="best" departPos="random" departSpeed="max">
        <route edges="bottom2C0 C0C1 C1C2 C2C3 C3B3 B3A3 A3left3"/>
    </vehicle>
    <vehicle id="p_100" depart="100.00" departLane="best" departPos="random" departSpeed="max">
        <route edges="C1C0 C0B0 B0A0 A0left0"/>
    </vehicle>
    <vehicle id="p_101" depart="101.00" departLane="best" departPos="random" departSpeed="max">
        <route edges="left1A1 A1B1 B1C1 C1D1 D1E1 E1F1 F1G1 G1G0 G0bottom6"/>
    </vehicle>
    <vehicle id="p_102" depart="102.00" departLane="best" departPos="random" departSpeed="max">
        <route edges="top7H5 H5H4 H4H3 H3H2 H2H1 H1H0 H0G0 G0F0 F0F1"/>
    </vehicle>
    <vehicle id="p_103" depart="103.00" departLane="best" departPos="random" departSpeed="max">
        <route edges="top7H5 H5H4 H4H3 H3H2 H2H1 H1H0 H0G0 G0F0 F0E0 E0D0 D0C0"/>
    </vehicle>
    <vehicle id="p_104" depart="104.00" departLane="best" departPos="random" departSpeed="max">
        <route edges="C3C4 C4C3 C3C2 C2C1 C1B1 B1A1 A1left1"/>
    </vehicle>
    <vehicle id="p_105" depart="105.00" departLane="best" departPos="random" departSpeed="max">
        <route edges="F2E2 E2E1 E1D1"/>
    </vehicle>
    <vehicle id="p_106" depart="106.00" departLane="best" departPos="random" departSpeed="max">
        <route edges="top7H5 H5G5 G5F5 F5E5 E5D5 D5C5 C5B5 B5top1"/>
    </vehicle>
    <vehicle id="p_107" depart="107.00" departLane="best" departPos="random" departSpeed="max">
        <route edges="E2E3 E3F3 F3G3 G3G2 G2G1 G1G0 G0bottom6"/>
    </vehicle>
    <vehicle id="p_108" depart="108.00" departLane="best" departPos="random" departSpeed="max">
        <route edges="H1G1 G1F1 F1E1 E1E2 E2E3 E3F3"/>
    </vehicle>
    <vehicle id="p_109" depart="109.00" departLane="best" departPos="random" departSpeed="max">
        <route edges="C5C4 C4C3 C3C2 C2C1 C1D1 D1E1 E1F1 F1G1 G1H1 H1right1"/>
    </vehicle>
    <vehicle id="p_110" depart="110.00" departLane="best" departPos="random" departSpeed="max">
        <route edges="top4E5 E5E4 E4E3 E3F3 F3G3 G3H3"/>
    </vehicle>
    <vehicle id="p_111" depart="111.00" departLane="best" departPos="random" departSpeed="max">
        <route edges="top4E5 E5E4 E4E3 E3E2 E2E1 E1D1 D1C1 C1B1"/>
    </vehicle>
    <vehicle id="p_112" depart="112.00" departLane="best" departPos="random" departSpeed="max">
        <route edges="A4A5 A5B5 B5C5 C5C4 C4C3 C3C2 C2C1 C1C0 C0B0"/>
    </vehicle>
    <vehicle id="p_113" depart="113.00" departLane="best" departPos="random" departSpeed="max">
        <route edges="top3D5 D5D4 D4E4"/>
    </vehicle>
    <vehicle id="p_114" depart="114.00" departLane="best" departPos="random" departSpeed="max">
        <route edges="D4D5 D5D4 D4C4 C4B4 B4A4 A4left4"/>
    </vehicle>
    <vehicle id="p_115" depart="115.00" departLane="best" departPos="random" departSpeed="max">
        <route edges="D1C1 C1D1 D1E1"/>
    </vehicle>
    <vehicle id="p_116" depart="116.00" departLane="best" departPos="random" departSpeed="max">
        <route edges="top4E5 E5E4 E4E3 E3E2 E2F2 F2G2 G2H2 H2right2"/>
    </vehicle>
    <vehicle id="p_117" depart="117.00" departLane="best" departPos="random" departSpeed="max">
        <route edges="right2H2 H2H3 H3H4 H4G4 G4F4"/>
    </vehicle>
    <vehicle id="p_118" depart="118.00" departLane="best" departPos="random" departSpeed="max">
        <route edges="D3E3 E3F3 F3G3 G3G4 G4G5 G5top6"/>
    </vehicle>
    <vehicle id="p_119" depart="119.00" departLane="best" departPos="random" departSpeed="max">
        <route edges="E1E0 E0bottom4"/>
    </vehicle>
    <vehicle id="p_120" depart="120.00" departLane="best" departPos="random" departSpeed="max">
        <route edges="A4A5 A5B5 B5C5 C5D5 D5E5 E5F5 F5G5 G5H5 H5H4 H4H3 H3H2 H2right2"/>
    </vehicle>
    <vehicle id="p_121" depart="121.00" departLane="best" departPos="random" departSpeed="max">
        <route edges="C3B3 B3B4 B4B5 B5C5 C5D5 D5E5 E5top4"/>
    </vehicle>
    <vehicle id="p_122" depart="122.00" departLane="best" departPos="random" departSpeed="max">
        <route edges="left3A3 A3B3 B3C3 C3D3 D3E3 E3F3 F3F2 F2F3"/>
    </vehicle>
    <vehicle id="p_123" depart="123.00" departLane="best" departPos="random" departSpeed="max">
        <route edges="left4A4 A4B4 B4C4 C4C5"/>
    </vehicle>
    <vehicle id="p_124" depart="124.00" departLane="best" departPos="random" departSpeed="max">
        <route edges="right3H3 H3H4 H4right4"/>
    </vehicle>
    <vehicle id="p_125" depart="125.00" departLane="best" departPos="random" departSpeed="max">
        <route edges="left1A1 A1B1 B1C1 C1D1 D1E1 E1F1 F1G1 G1H1 H1H2 H2H3 H3H4 H4H5 H5top7"/>
    </vehicle>
    <vehicle id="p_126" depart="126.00" departLane="best" departPos="random" departSpeed="max">
        <route edges="top0A5 A5A4 A4A3 A3A2 A2A1 A1left1"/>
    </vehicle>
    <vehicle id="p_127" depart="127.00" departLane="best" departPos="random" departSpeed="max">
        <route edges="left4A4 A4A3 A3A2 A2left2"/>
    </vehicle>
    <vehicle id="p_128" depart="128.00" departLane="best" departPos="random" departSpeed="max">
        <route edges="left3A3 A3B3 B3B4 B4C4 C4D4"/>
    </vehicle>
    <vehicle id="p_129" depart="129.00" departLane="best" departPos="random" departSpeed="max">
        <route edges="top0A5 A5A4 A4A3 A3A2 A2A1 A1A0 A0left0"/>
    </vehicle>
    <vehicle id="p_130" depart="130.00" departLane="best" departPos="random" departSpeed="max">
        <route edges="top5F5 F5F4 F4F3 F3F2 F2F1 F1F0 F0E0 E0D0 D0C0 C0B0 B0A0 A0left0"/>
    </vehicle>
    <vehicle id="p_131" depart="131.00" departLane="best" departPos="random" departSpeed="max">
        <route edges="B1B2 B2B1 B1B0 B0A0 A0B0"/>
    </vehicle>
    <vehicle id="p_132" depart="132.00" departLane="best" departPos="random" departSpeed="max">
        <route edges="C2D2 D2E2 E2F2 F2G2 G2H2 H2H3 H3H4 H4H5 H5top7"/>
    </vehicle>
    <vehicle id="p_133" depart="133.00" departLane="best" departPos="random" departSpeed="max">
        <route edges="top0A5 A5A4 A4A3 A3B3 B3C3 C3D3 D3E3 E3F3 F3G3 G3H3 H3right3"/>
    </vehicle>
    <vehicle id="p_134" depart="134.00" departLane="best" departPos="random" departSpeed="max">
        <route edges="D3D2 D2D3 D3E3 E3F3 F3F4 F4F5 F5top5"/>
    </vehicle>
    <vehicle id="p_135" depart="135.00" departLane="best" departPos="random" departSpeed="max">
        <route edges="right4H4 H4G4 G4G3 G3G2 G2G1 G1G0"/>
    </vehicle>
    <vehicle id="p_136" depart="136.00" departLane="best" departPos="random" departSpeed="max">
        <route edges="F0E0 E0E1 E1E2 E2E3 E3E4 E4E5 E5F5 F5G5 G5H5 H5right5"/>
    </vehicle>
    <vehicle id="p_137" depart="137.00" departLane="best" departPos="random" departSpeed="max">
        <route edges="right0H0 H0G0 G0F0 F0F1 F1F2 F2F3 F3F4 F4F5 F5top5"/>
    </vehicle>
    <vehicle id="p_138" depart="138.00" departLane="best" departPos="random" departSpeed="max">
        <route edges="F1G1 G1F1 F1E1 E1D1 D1C1 C1C2 C2C3 C3C4 C4C5 C5top2"/>
    </vehicle>
    <vehicle id="p_139" depart="139.00" departLane="best" departPos="random" departSpeed="max">
        <route edges="right2H2 H2G2 G2F2 F2E2 E2E1 E1E0 E0bottom4"/>
    </vehicle>
    <vehicle id="p_140" depart="140.00" departLane="best" departPos="random" departSpeed="max">
        <route edges="bottom3D0 D0D1 D1D2 D2D3 D3E3 E3F3 F3G3 G3H3 H3right3"/>
    </vehicle>
    <vehicle id="p_141" depart="141.00" departLane="best" departPos="random" departSpeed="max">
        <route edges="H5H4 H4H3 H3H2 H2H1 H1right1"/>
    </vehicle>
    <vehicle id="p_142" depart="142.00" departLane="best" departPos="random" departSpeed="max">
        <route edges="B0C0 C0D0 D0D1 D1E1 E1D1"/>
    </vehicle>
    <vehicle id="p_143" depart="143.00" departLane="best" departPos="random" departSpeed="max">
        <route edges="right0H0 H0G0 G0F0 F0E0 E0D0 D0C0 C0B0 B0A0 A0bottom0"/>
    </vehicle>
    <vehicle id="p_144" depart="144.00" departLane="best" departPos="random" departSpeed="max">
        <route edges="left5A5 A5B5 B5top1"/>
    </vehicle>
    <vehicle id="p_145" depart="145.00" departLane="best" departPos="random" departSpeed="max">
        <route edges="left1A1 A1B1 B1C1 C1D1 D1E1 E1F1 F1F0 F0bottom5"/>
    </vehicle>
    <vehicle id="p_146" depart="146.00" departLane="best" departPos="random" departSpeed="max">
        <route edges="C3D3 D3E3 E3E4 E4F4 F4G4 G4H4 H4right4"/>
    </vehicle>
    <vehicle id="p_147" depart="147.00" departLane="best" departPos="random" departSpeed="max">
        <route edges="E3E2 E2D2 D2C2 C2B2 B2A2 A2A3 A3A4 A4A5"/>
    </vehicle>
    <vehicle id="p_148" depart="148.00" departLane="best" departPos="random" departSpeed="max">
        <route edges="bottom0A0 A0A1 A1left1"/>
    </vehicle>
    <vehicle id="p_149" depart="149.00" departLane="best" departPos="random" departSpeed="max">
        <route edges="C0C1 C1C2 C2C3 C3D3 D3E3 E3F3 F3G3 G3G4 G4G5"/>
    </vehicle>
    <vehicle id="p_150" depart="150.00" departLane="best" departPos="random" departSpeed="max">
        <route edges="B5C5 C5D5 D5E5 E5E4 E4E3 E3E2 E2E1"/>
    </vehicle>
    <vehicle id="p_151" depart="151.00" departLane="best" departPos="random" departSpeed="max">
        <route edges="top2C5 C5C4 C4D4 D4D3 D3D2"/>
    </vehicle>
    <vehicle id="p_152" depart="152.00" departLane="best" departPos="random" departSpeed="max">
        <route edges="right5H5 H5H4 H4H3 H3H2 H2H1 H1H0 H0right0"/>
    </vehicle>
    <vehicle id="p_153" depart="153.00" departLane="best" departPos="random" departSpeed="max">
        <route edges="D1C1 C1B1 B1A1 A1A2 A2A1"/>
    </vehicle>
    <vehicle id="p_154" depart="154.00" departLane="best" departPos="random" departSpeed="max">
        <route edges="right3H3 H3H2 H2H1 H1right1"/>
    </vehicle>
    <vehicle id="p_155" depart="155.00" departLane="best" departPos="random" departSpeed="max">
        <route edges="top0A5 A5A4 A4A3 A3B3 B3C3 C3D3 D3E3 E3F3 F3G3 G3G2 G2G1 G1G0 G0bottom6"/>
    </vehicle>
    <vehicle id="p_156" depart="156.00" departLane="best" departPos="random" departSpeed="max">
        <route edges="bottom4E0 E0E1 E1E2 E2E3 E3E4 E4E5 E5F5 F5G5 G5H5 H5H4"/>
    </vehicle>
    <vehicle id="p_157" depart="157.00" departLane="best" departPos="random" departSpeed="max">
        <route edges="right1H1 H1G1 G1G2 G2G3 G3G4 G4H4"/>
    </vehicle>
    <vehicle id="p_158" depart="158.00" departLane="best" departPos="random" departSpeed="max">
        <route edges="top3D5 D5D4 D4D3 D3D2 D2D1 D1C1 C1B1 B1A1 A1left1"/>
    </vehicle>
    <vehicle id="p_159" depart="159.00" departLane="best" departPos="random" departSpeed="max">
        <route edges="right1H1 H1G1 G1F1 F1E1 E1E2 E2E3 E3E4 E4E5 E5top4"/>
    </vehicle>
    <vehicle id="p_160" depart="160.00" departLane="best" departPos="random" departSpeed="max">
        <route edges="A1B1 B1B2 B2B3 B3A3"/>
    </vehicle>
    <vehicle id="p_161" depart="161.00" departLane="best" departPos="random" departSpeed="max">
        <route edges="right0H0 H0H1 H1G1 G1F1 F1E1 E1D1"/>
    </vehicle>
    <vehicle id="p_162" depart="162.00" departLane="best" departPos="random" departSpeed="max">
        <route edges="bottom6G0 G0G1 G1G2 G2G3 G3F3 F3E3 E3D3 D3C3 C3B3 B3B4 B4B5 B5top1"/>
    </vehicle>
    <vehicle id="p_163" depart="163.00" departLane="best" departPos="random" departSpeed="max">
        <route edges="bottom6G0 G0G1 G1G2 G2H2 H2right2"/>
    </vehicle>
    <vehicle id="p_164" depart="164.00" departLane="best" departPos="random" departSpeed="max">