<?xml version="1.0" encoding="UTF-8"?>

<!-- generated on 2026-04-02 23:51:24.242868 by randomTrips.py UNKNOWN
<configuration>
    <net-file value="/home/vivek/research/NIT hackathon/final_year_project/sumo/networks/kolkata.net.xml"/>
    <route-file value="/home/vivek/research/NIT hackathon/final_year_project/sumo/routes/kolkata_passenger.rou.xml"/>
    <prefix value="p_"/>
    <trip-attributes value="departLane=&quot;best&quot; departSpeed=&quot;max&quot; departPos=&quot;random&quot;"/>
    <fringe-factor value="10"/>
    <period value="1.5 1.0 2.0"/>
</configuration>
-->

<!-- generated on 2026-04-02 23:51:22 by Eclipse SUMO duarouter Version 1.18.0
<configuration xmlns:xsi="http://www.w3.org/2001/XMLSchema-instance" xsi:noNamespaceSchemaLocation="http://sumo.dlr.de/xsd/duarouterConfiguration.xsd">

    <input>
        <net-file value="/home/vivek/research/NIT hackathon/final_year_project/sumo/networks/kolkata.net.xml"/>
        <route-files value="trips.trips.xml"/>
    </input>

    <output>
        <output-file value="/home/vivek/research/NIT hackathon/final_year_project/sumo/routes/kolkata_passenger.rou.xml"/>
        <alternatives-output value="NUL"/>
    </output>

    <time>
        <begin value="0.0"/>
        <end value="3600.0"/>
    </time>

    <report>
        <no-warnings value="true"/>
        <ignore-errors value="true"/>
        <no-step-log value="true"/>
    </report>

</configuration>
-->

<routes xmlns:xsi="http://www.w3.org/2001/XMLSchema-instance" xsi:noNamespaceSchemaLocation="http://sumo.dlr.de/xsd/routes_file.xsd">
    <vehicle id="p_0" depart="0.00" departLane="best" departPos="random" departSpeed="max">
        <route edges="104227908 104227919#1 104227919#2 104227919#3 104227919#4 1173581904 104227897#0 104227897#1 -101999555#7 -101999555#5 -101999555#4 -101999555#3 -101999555#1 -101999555#0 105258720#0 105258720#2 105258720#3 105258720#4 105258720#5 105258720#6 -101943119#1 -101943119#0 -101943168#2 -101943168#1 -103024890#1 -103024890#0 -1355767654#1 -102004610"/>
    </vehicle>
    <vehicle id="p_1" depart="1.50" departLane="best" departPos="random" departSpeed="max">
        <route edges="-1087118363#1 -1087118363#0 1087118363#0 1087118363#1 1087118363#3 1087118363#4 101999555#0 101999555#1 101999555#3 101999555#4 101999555#5 101999555#7 104311968#0 104311968#1 104311968#2 104311968#3 104311968#4 104311968#6 104311948#2 -104311954#4 -104311936#2 -104311936#1"/>
    </vehicle>
    <vehicle id="p_2" depart="3.00" departLane="best" departPos="random" departSpeed="max">
        <route edges="105019307 105019230#2 105019230#3 1127845532#8 1127845532#9 -105258720#12 -105258720#10 -105258720#9 -105258720#8 -105258720#7 -105258720#6 -105258720#5 -105258720#4 -105258720#3 -105258720#2 -105258720#0 101999555#0 101999555#1 101999555#3 101999555#4 101999555#5 101999555#7 101999555#8 -104227913#6 -104227913#5 -104227913#3 -104227913#2 104227920"/>
    </vehicle>
    <vehicle id="p_3" depart="4.50" departLane="best" departPos="random" departSpeed="max">
        <route edges="1174034513 1174037652 1174034509 1174034510#0 1174034510#1 1166212047 1174044693#0 992291721#1 992291721#2 992291721#3 1193989528 1193989534#0 1174049307 1174049306#3 1174212172#0 1174197314 1174197315#0 1174197315#1 1174213093 105019216 1174215510 1174214863#0 1174214863#1 1174214863#3 1174219170#0 1174219170#1 1193972494#0 1193972494#1 1193972494#2 1193972494#3 1193972494#4 1193972496 1309034477#0 1309034477#1 239266478#0 239266478#1 239266478#2 239266478#3 239266478#4 1124385975#1 1124385975#2 1124385975#3 1124385975#4 1124385971#0 1124385971#1 1124385971#2 1124385971#3 1124385971#4 1124385971#5 1124385971#6 1124385971#7 1124385971#8 1124385971#9 1128136254 1126633512 52087651#0 52087651#1 52087651#2 52087651#3 52087651#4 52087651#5 52087651#6 52152298#0 -103230520"/>
    </vehicle>
    <vehicle id="p_4" depart="6.00" departLane="best" departPos="random" departSpeed="max">
        <route edges="101972912#0 -1087118361#5 -1087118361#4 -1087118361#3 -1087118361#2 -1087118361#1 -1087118361#0 1132238886 52152366#0 52152366#1 52152366#2 52152366#3 52152366#4 52152366#5 1126641019#0 1126641019#1 1126641019#2 1126641019#4 1126641019#5 239266479#0 239266479#1 239266479#2 239266479#4 239266479#5 1124379135 1309033381 1102881628 1102881626#0 1102881626#1 1102881626#2 1193972495 1193972492#0 1193972492#1 1193972492#2 1193972492#3 1287633305 1174219169#1 1124394722 1174219174#0 1174219174#1 1174219174#2 1174215509 -102015135#14"/>
    </vehicle>
    <vehicle id="p_5" depart="7.50" departLane="best" departPos="random" departSpeed="max">
        <route edges="-105019330#0 -105019334#0 104777725#9 104777725#11 104777725#12 104777725#13 104777725#15 104777725#16 1166212047 1174044693#0 992291721#1 992291721#2 992291721#3 1193989528 1193989534#0 1174049307 1174049306#3 1174212172#0 1174197314 1174197315#0 1174197315#1 1174213093 105019216 1174215510 1174214863#0 1174214863#1 1174214863#3 1174219170#0 1174219170#1 1193972494#0 1193972494#1 1193972494#2 1193972494#3 1193972494#4 1193972496 1309034477#0 102192909#6 102192909#7 102192909#8 102192909#10 -697065658"/>
    </vehicle>
    <vehicle id="p_6" depart="9.00" departLane="best" departPos="random" departSpeed="max">
        <route edges="-102015151#7 -102015151#6 -102945913#2 -102945913#1 -102945913#0 -101943180#1 -101943180#0 102945916#5 102945916#6 102945916#8 102945916#9 102945916#10 1309273789#0 1309273789#1 1309273789#2 102945909#0 102945909#1 102945909#2 102945909#5 102945909#6 102945909#7 102945909#8 102945909#9 102945909#11 102945909#12 102945909#13 102945909#14 102945909#15 102945909#16 103568951#0 103568951#2 103568951#3 -104203891 -104203913#0"/>
    </vehicle>
    <vehicle id="p_7" depart="10.50" departLane="best" departPos="random" departSpeed="max">
        <route edges="104311932 -104311947#0 -101999555#8 -101999555#7 -101999555#5 -101999555#4 -101999555#3 -101999555#1 -101999555#0 -1087118363#4 102015135#1 102015135#2 102015135#3 102015135#4 102015135#5 -102015151#7 -102015151#6 -102945913#2 -102945913#1 -102945913#0 -101943180#1 -102023597#2 -102023597#1 -102023597#0 102023597#0"/>
    </vehicle>
    <vehicle id="p_8" depart="12.00" departLane="best" departPos="random" departSpeed="max">
        <route edges="-105019335#3 105019335#3 190892041#1 190892041#2 190892041#3 190892041#4 190892041#6 190892041#7 -105258720#12 -105258720#10 -105258720#9 -105258720#8 -105258720#7 -105258720#6 -105258720#5 -105258720#4 -105258720#3 -105258720#2 -105258720#0 -1130841856#10 -1130841856#9 -1130841856#8 -1130841856#7 -1130841856#6 -1130841856#5 -1130841856#4 -1130841856#3 -1130841856#2 -1130841856#1 -1130841856#0 105019216 1174215510 1174214863#0 1174214863#1 1174214863#3 1174219170#0 1174219170#1 1193972494#0 1193972494#1 1193972494#2 1193972494#3 1193972494#4 1193972496 1309034477#0 1309034477#1 239266478#0 239266478#1 239266478#2 239266478#3 239266478#4 1124385975#1 1124385975#2 1124385975#3 1124385975#4 1124385971#0 1124385971#1 1124385971#2 -103477666 -103477633#2 -103477615 103230597#0 103230597#1 1173861153#1 103230503#0 -103230487#1 -103230487#0 103230538#2 103230538#3"/>
    </vehicle>
    <vehicle id="p_9" depart="13.50" departLane="best" departPos="random" departSpeed="max">
        <route edges="105605185 -105605194#1 -105605194#0 27552926#13 27552926#14 27552926#15 27552926#16 27552926#17 -101999555#13 -101999555#11 -101999555#10 -101999555#8 -101999555#7 -101999555#5 -101999555#4 -101999555#3 -101999555#1 -101999555#0 -1130841856#10 -1130841856#9 -1130841856#8 -1130841856#7 -1130841856#6 -1130841856#5 -1130841856#4 101943143#0 101943143#2 101943143#4 101943143#5 -1173585818 -1173585820 -103021785#2 101943158#0 -101943158#0"/>
    </vehicle>
    <vehicle id="p_10" depart="15.00" departLane="best" departPos="random" departSpeed="max">
        <route edges="105605180 995157448 105605198#2 27552926#16 27552926#17 -101999555#13 -101999555#11 -101999555#10 -101999555#8 -101999555#7 -101999555#5 -101999555#4 -101999555#3 -101999555#1 -101999555#0 -1130841856#10 -1130841856#9 -1130841856#8 -1130841856#7 -1130841856#6 -1130841856#5 -1130841856#4 -1130841856#3 -1130841856#2 -1130841856#1 -1130841856#0 1174213096 1174213095 1174197319 1174212170 1174197318#0 1174197318#1 1174197318#2 1174049311 1193989531 1193989532 1174049305#1 1174044692#1 1166212048 1127841752#0 1127841752#1 1127841752#2 1174034511 1174034513 1174037650 1126475658 1174040630#0 1174040630#2 -105258492#5 105258509#0 105258509#1 1173221503#2 1173221503#3 1043345934"/>
    </vehicle>
    <vehicle id="p_11" depart="16.50" departLane="best" departPos="random" departSpeed="max">
        <route edges="-1179964025 102015169#1 749353221#0 749353221#1 749353221#2 1193972494#2 1193972494#3 1193972494#4 1193972496 1309034477#0 1309034477#1 239266478#0 239266478#1 239266478#2 239266478#3 239266478#4 1124385975#1 1124385975#2 1124385975#3 1124385975#4 1124385971#0 1124385971#1 1124385971#2 1124385971#3 1124385971#4 1124385971#5 1124385971#6 1124385971#7 1124385971#8 1124385971#9 1128136253#0 1128136253#1 1128136253#2 1126641016#0 1126641016#1 1126641016#2 1452323647 1126703029#1 -103625260#2 -103625251 -103625252#2 -103625252#1 -103625252#0"/>
    </vehicle>
    <vehicle id="p_12" depart="18.00" departLane="best" departPos="random" departSpeed="max">
        <route edges="190892041#4 -105304971#8 -105304971#7 -105304971#6 -105304971#5"/>
    </vehicle>
    <vehicle id="p_13" depart="19.50" departLane="best" departPos="random" departSpeed="max">
        <route edges="-103568952#3 -103568952#2 103568952#2 103568952#3 1111799487#0 1111799487#2 -102023543#8 -102023543#7 -102023543#6 -102023543#4 -102023543#3 -102023543#2 -102023543#0 103594716#11 -104184037#3 -104184037#2 -104184037#0 104184114#3 104184114#4 -103230612#6 -103230612#5 -103230612#4"/>
    </vehicle>
    <vehicle id="p_14" depart="21.00" departLane="best" departPos="random" departSpeed="max">
        <route edges="1124385971#9 1128136254 50219792#0 50219792#1 50219792#2 50219792#3 50219792#4 103477633#0 103477633#1 103477633#2"/>
    </vehicle>
    <vehicle id="p_15" depart="22.50" departLane="best" departPos="random" departSpeed="max">
        <route edges="105605181 27552926#12 27552926#13 27552926#14 27552926#15 27552926#16 27552926#17 -101999555#13 -101999555#11 -101999555#10 -101999555#8 -101999555#7 -101999555#5 -101999555#4 -101999555#3 -101999555#1 -101999555#0 105258720#0 105258720#2 105258720#3 105258720#4 105258720#5 105258720#6 105258720#7 105258720#8 105258720#9 105258720#10 105258720#12 -190892041#7 -190892041#6 -190892041#4 -190892041#3 104777765#1 104777765#2 105019300#5 105019300#6 105019300#7 -105019305#5 -105019305#3 995157440 105019247#1"/>
    </vehicle>
    <vehicle id="p_16" depart="24.00" departLane="best" departPos="random" departSpeed="max">
        <route edges="103477637 103477646#3 103477690#2 103477690#3 103477690#4 103230506#1 103230506#2 -52097270#9 -52097270#8 -52097270#7 -52097270#6 -52097270#5 -52097270#4 -52097270#3 -52097270#2 -52097270#1 -52097270#0 1102881628 1102881626#0 1102881626#1 1102881626#2 1193972495 1193972492#0 1193972492#1 1193972492#2 1193972492#3 1287633305 1174219169#1 1124394722 1174219174#0 1174219174#1 1174219174#2 1174215509 1174214864 1174213096 1174213095 1174197319 1174212170 1174197318#0 101994129#0 101994129#1 101994129#2 101994129#3 101994129#4 101994129#5 101994129#6 101994129#7 101994129#8 52085865#22 52085865#24"/>
    </vehicle>
    <vehicle id="p_17" depart="25.50" departLane="best" departPos="random" departSpeed="max">
        <route edges="-1310033456 1174214863#1 1174214863#3 1174219170#0 1174219170#1 1193972494#0 1193972494#1 1193972494#2 1193972494#3 1193972494#4 1193972496 1309034477#0 1309034477#1 239266478#0 239266478#1 52097270#0 52097270#1 52097270#2 52097270#3 52097270#4 52097270#5 52097270#6 52097270#7 52097270#8 52097270#9 103477632#0 103477632#2 103477632#3 103477632#5 103477632#6 103477632#7 103477632#9 103477632#10 103477632#12 103477632#13 103477632#14 103477632#15 103477632#16 103477632#18 103477632#19 103230612#0 103230612#3 103230612#4 103230612#5 103230612#6 103230612#8 103230612#9 103230612#10 103230612#11 103230612#12 103230612#13 103230612#14 103230612#15 103230612#16 103230612#17 1029381530#0"/>
    </vehicle>
    <vehicle id="p_18" depart="27.00" departLane="best" departPos="random" departSpeed="max">
        <route edges="105741926 105741949#1 105741950#5 -1251109565#1 -1251109565#0 1251109567 1126641013#0 1126641013#1 1126641013#2 1388704703#0 -104045582#5 -104045582#4 -104045582#3 -104045582#2 -104045582#1 104049639#0 104049639#1 104049639#2 104049639#3 104049639#4 104049639#5 104049639#6 -104184114#4 -104184114#3 104184037#0 104184037#2 104184037#3 -103594716#11 102023543#0 102023543#2 -103572004#2 103572005"/>
    </vehicle>
    <vehicle id="p_19" depart="28.50" departLane="best" departPos="random" departSpeed="max">
        <route edges="1126703034 1126703028 1314812923 103594700#0 -103594720#6 -103594720#5 -103594720#4 -103594720#2 -103594720#1 -103594720#0 52087651#6 52152298#0 52152298#1 52152298#3 52152298#4 52152298#6 52152298#7 -103230598#1 -103230598#0 -103212682#2 -103212682#1 -103212682#0 -1199688354#1 -1199688354#0 104043544#5 104043544#7 104043544#8 104043544#9 104043544#10 104043544#11 1087118361#2 1087118361#3 1087118361#4 1087118361#5 1087118361#7 1087118361#8 101972955#0 101972955#1 103212679"/>
    </vehicle>
    <vehicle id="p_20" depart="30.00" departLane="best" departPos="random" departSpeed="max">
        <route edges="104777735 -1174034512#6 -1174034512#5 -1174034512#3 -1174034512#1 -1174034512#0 1174034509 1174034510#0 1174034510#1 1166212047 1174044693#0 992291721#1 992291721#2 992291721#3 1193989528 1193989534#0 1174049307 1174049306#3 1174212172#0 1174197314 1174197315#0 1174197315#1 1174213093 105019216 1174215510 1174214863#0 1174214863#1 1174214863#3 1174219170#0 1174219170#1 1193972494#0 1193972494#1 1193972494#2 1193972494#3 1193972494#4 1193972496 1309034477#0 102192909#6 102192909#7 102192909#8 102192909#10 102192909#11 1309254612#1 -102023575"/>
    </vehicle>
    <vehicle id="p_21" depart="31.50" departLane="best" departPos="random" departSpeed="max">
        <route edges="-105258502#0 1174040629#7 105258514#0 105258514#1 105258514#2 105258497#3 105258497#4 105258497#5 105258497#6 -105258508 -1173221503#0 52101402#0 52101402#1 52101402#2 52101402#4 52101394 1174037652 1174034509 1174034510#0 1174034510#1 -104777725#16 -104777725#15 -104777725#13 -104777725#12 -104777725#11 -104777725#9 -104777725#8 -105019206"/>
    </vehicle>
    <vehicle id="p_22" depart="33.00" departLane="best" departPos="random" departSpeed="max">
        <route edges="-103477632#9 -103477632#7 -103477632#6 -103477632#5 -103477632#3 -103477632#2 -103477632#0 105258719#0 105258719#1 105258719#2 105258719#3 105258719#4 105258719#5 105258719#6 105258719#7 105258719#9 105258719#10 105258719#11 105258719#12 1087118363#0 1087118363#1 1087118363#3 1087118363#4 101999555#0 101999555#1 101999555#3 101999555#4 101999555#5 101999555#7 101999555#8 101999555#10 104311980#0 104311980#1 104311980#2 -104311961"/>
    </vehicle>
    <vehicle id="p_23" depart="34.50" departLane="best" departPos="random" departSpeed="max">
        <route edges="-103593754#0 103593775#1 -1364197409#0 103593781#2 1124391475#1 1124391475#2 1124391475#3 1124391475#4 104227901#1 104227901#2 101943153#0 101943153#1 101943153#2 1087118363#4 105258720#0 105258720#2 105258720#3 105258720#4 105258720#5 105258720#6 105258720#7 105258720#8 105258720#9 105258720#10 105258720#12 -1127845532#9 -1127845532#8 104777725#2 104777725#3 -104777725#3"/>
    </vehicle>
    <vehicle id="p_25" depart="37.50" departLane="best" departPos="random" departSpeed="max">
        <route edges="-1287998020 50219792#2 50219792#3 50219792#4 50219792#5 50219792#6 50219792#7 103230506#0 103230506#1 103230506#2 105258719#0 105258719#1 105258719#2 105258719#3 105258719#4 105258719#5 105258719#6 105258719#7 105258719#9 105258719#10 105258719#11 105258719#12 1087118363#0 1087118363#1 1087118363#3 1087118363#4 105258720#0 105258720#2 105258720#3 105258720#4 105258720#5 105258720#6 105258720#7 104227914#0 104227914#1 104227914#2 -104227904#1"/>
    </vehicle>
    <vehicle id="p_26" depart="39.00" departLane="best" departPos="random" departSpeed="max">
        <route edges="-105741939 -105741953#1 -105741953#0 -105741952#1 -105741952#0 1388704702#0 1388704702#2 1388704702#3 1251109563 1126703028 1314812923 103594700#0 103594700#1 103594700#2 103594700#3 103594700#4 103594700#5 697098357#0 1309220232"/>
    </vehicle>
    <vehicle id="p_27" depart="40.50" departLane="best" departPos="random" departSpeed="max">
        <route edges="104311930 -104227910#7 -104227910#6 -104227910#5 -104227910#3 -104227910#1 -104227910#0 -105258720#6 -105258720#5 -105258720#4 -105258720#3 -105258720#2 -105258720#0 -1087118363#4 -1087118363#3 -1087118363#1 -1087118363#0 105605179#0 -1173348713#0 -103593766#2 -103593766#1 -103593766#0 102945909#5 102945909#6 103568952#0 103568952#1 103568952#2 103568952#3 1111799487#0 1111799487#2 -102023543#8 -102023543#7 -102023543#6 -103477684#5 -103477684#4 -103477684#3 -103477684#2 -103477684#0 103477658"/>
    </vehicle>
    <vehicle id="p_28" depart="42.00" departLane="best" departPos="random" departSpeed="max">
        <route edges="-1043338683#1 1390299830#28 1390299830#29 -104789478#4 -104789478#3 -104789478#2 -104789478#1 -104789478#0 52101402#1 52101402#2 52101402#4 52101394 1174037652 -1174034514 -105019321#10 -105019321#9 -104777765#11 -105019238#1 105019238#1"/>
    </vehicle>
    <vehicle id="p_29" depart="43.50" departLane="best" departPos="random" departSpeed="max">
        <route edges="-104311969#0 -104700139#1 -104311968#2 -104311968#1 -104311968#0 101999555#8 101999555#10 101999555#11 101999555#13 27552926#18 1127498308 1032032666#1 1032032666#2 1032032666#3 -105605184"/>
    </vehicle>
    <vehicle id="p_30" depart="45.00" departLane="best" departPos="random" departSpeed="max">
        <route edges="693306850#0 693306850#1 102023538#1 105741953#0 105741953#1 105741953#2 105741953#3 105741941#0 105741941#2 105741941#3 105741941#4 105741941#5 105741941#6 105741941#7 105741927#0 105741927#1 1322138626#0 1322138626#1 105738792#1 105738792#2 -1322138628#0 -1322138629 -103568951#4 -103568951#3 -103568951#2 -103568951#0 103594716#5 103594716#6"/>
    </vehicle>
    <vehicle id="p_31" depart="46.50" departLane="best" departPos="random" departSpeed="max">
        <route edges="103593766#2 1173348713#0 105605179#1 105605179#2 104227901#1 104227901#2 104227899#0 104227899#2 104227899#3 104227899#4 101999555#5 101999555#7 104311968#0 104311968#1 104311968#2 -104700139#0 104311954#0 104311954#1"/>
    </vehicle>
    <vehicle id="p_32" depart="48.00" departLane="best" departPos="random" departSpeed="max">
        <route edges="1087118363#0 1087118363#1 1087118363#3 1087118363#4 105258720#0 105258720#2 105258720#3 105258720#4 105258720#5 105258720#6 105258720#7 105258720#8 105258720#9 105258720#10 105258720#12 -190892041#7 -190892041#6 -190892041#4 -190892041#3 -190892041#2 -190892041#1 -190892041#0 -1173226154#7 -1173226154#6 -105305056#1 -105305056#0 1127839389#12 105578155#6 105578155#7 105578155#8"/>
    </vehicle>
    <vehicle id="p_33" depart="49.50" departLane="best" departPos="random" departSpeed="max">
        <route edges="-105258502#1 -105258502#0 1174040629#7 1174040629#8 1174040629#9 1126475656 1127867223 1126837965 1126837964 1126837963 1029504352 1126518488 1173226154#0 1173226154#1 1173226154#2 1173226154#6 1173226154#7 190892041#0 190892041#1 190892041#2 190892041#3 190892041#4 190892041#6 190892041#7 -105258720#12 -105258720#10 -105258720#9 -105258720#8 -105258720#7 -105258720#6 -105258720#5 -105258720#4 -105258720#3 -105258720#2 -105258720#0 -1087118363#4 102015135#1 102015135#2 102015135#3 102015135#4 102015135#5 -102015151#7 -102015151#6 -102015151#5 -102015151#4"/>
    </vehicle>
    <vehicle id="p_34" depart="51.00" departLane="best" departPos="random" departSpeed="max">
        <route edges="-1178079762 1166214530#2 -103594697#1 -103594697#0 103594712#2 103594695#1 1126633514#4 1344481867 1126633513 50219792#0 50219792#1 50219792#2 50219792#3 50219792#4 50219792#5 50219792#6 50219792#7 103230506#0 103230506#1 103230506#2 105258719#0 105258719#1 105258719#2 105258719#3 105258719#4 105258719#5 105258719#6 105258719#7 105258719#9 105258719#10 105258719#11 105258719#12 1087118363#0 1087118363#1 1087118363#3 1087118363#4 105258720#0 105258720#2 105258720#3 105258720#4 105258720#5 105258720#6 105258720#7 105258720#8 105258720#9 105258720#10 104700167#0 104700167#1 104700183#0 104700183#1 -104700168"/>
    </vehicle>
    <vehicle id="p_35" depart="52.50" departLane="best" departPos="random" departSpeed="max">
        <route edges="-105019283#1 105019281 -105019334#1 -105019334#0 -104777725#8 -104777725#7 -104777725#5 -104777725#4 -104777725#3 -104777725#2 -1173344745#2 -1173344745#1 -1173585822#4 -1173585822#3 -1173585822#1 -1173585822#0 1173585821 1310146036 1310146037"/>
    </vehicle>
    <vehicle id="p_36" depart="54.00" departLane="best" departPos="random" departSpeed="max">
        <route edges="1173222490 -105258497#5 105258498#0 105258498#1 105258498#2 105258498#4 105258492#2 -105258511 1174040629#4 105019321#0 105019321#1 -105019321#1"/>
    </vehicle>
    <vehicle id="p_37" depart="55.50" departLane="best" departPos="random" departSpeed="max">
        <route edges="104311950#1 1029381531#7 -104311943#1 104311933#0 104311933#1 -104311947#1 -104311947#0 101999555#10 101999555#11 101999555#13 27552926#18 1127493386#2 1124391489#1 105738796#0 105738796#1 105738796#2 105738796#3 -105741927#5 -105741927#4 -105741927#3 -105738793#2"/>
    </vehicle>
    <vehicle id="p_38" depart="57.00" departLane="best" departPos="random" departSpeed="max">
        <route edges="1193972497#6 -1193972497#6 -1193972497#5 -1193972497#4 102825275#0 102825275#1 102825275#2 102192909#1 102192909#2 102192909#4 102192909#6 102192909#7 102192909#8 102192909#10 1235109790 -1235109789"/>
    </vehicle>
    <vehicle id="p_39" depart="58.50" departLane="best" departPos="random" departSpeed="max">
        <route edges="-105741927#11 1032034247#3 1032034247#4 1032034247#5 1464992585#1 1029381531#1 1029381531#2 1029381531#4 1029381531#5 1029381531#6 1029381531#7 1029381531#8 104311936#0 104311936#1 -104311981"/>
    </vehicle>
    <vehicle id="p_40" depart="60.00" departLane="best" departPos="random" departSpeed="max">
        <route edges="103593779 -103593766#1 -103593766#0 -102945909#2 -102945909#1 -102945909#0 105258719#11 105258719#12 1087118363#0 1087118363#1 1087118363#3 1087118363#4 105258720#0 105258720#2 105258720#3 105258720#4 105258720#5 105258720#6 105258720#7 105258720#8 105258720#9 105258720#10 104700167#0 104700167#1 104700183#0 104700183#1 104700183#2 -104700147"/>
    </vehicle>
    <vehicle id="p_41" depart="61.50" departLane="best" departPos="random" departSpeed="max">
        <route edges="103625252#0 103625252#1 103625252#2 103625251 103625260#2 1126703031 1251109567 1126641013#0 1126641013#1 1126641013#2 1388704703#0 -104045582#5 -104045582#4 -104045582#3 -104045582#2 -104045582#1 104049639#0 104049639#1 104049639#2 104049639#3 104049639#4 104049639#5 104049639#6 -103230612#6 -103230612#5 -103230612#4 -103230612#3 -103230612#0 -103477632#19 -103477632#18 -103477632#16 -103477632#15 -103477632#14 -103477632#13 -103477632#12 -103477632#10 -103477632#9 -103477632#7 -103477632#6 -103477632#5 -103477632#3 -103477632#2 -103477632#0 105258719#0 105258719#1 105258719#2 105258719#3 105258719#4 105258719#5 105258719#6 105258719#7 105258719#9 105258719#10 105258719#11 105258719#12 1392909746#1 1392909746#2 1179956140"/>
    </vehicle>
    <vehicle id="p_42" depart="63.00" departLane="best" departPos="random" departSpeed="max">
        <route edges="-52152406#1 52152406#1 52152406#2 52152406#3 1390299830#4 1390299830#6 -1166212046#6 -1174034512#7 -1174034512#6 -1174034512#5 -1174034512#3 -1174034512#1 -1174034512#0 1174034509 1174034510#0 1174034510#1 -104777725#16 -104777725#15 -104777725#13 -104777725#12 -104777725#11 -104777725#9 -104777725#8 -104777725#7 -104777725#5 -104777725#4 -104777725#3 -104777725#2 1127845532#8 1127845532#9 -105258720#12 -105258720#10 -105258720#9 -105258720#8 104227914#0 104227914#1 104227914#2 104227914#3 -104227921#2"/>
    </vehicle>
    <vehicle id="p_43" depart="64.50" departLane="best" departPos="random" departSpeed="max">
        <route edges="995135256 103585521#0 103585521#1 102023543#2 102023543#3 102023543#4 -103477684#5 -103477684#4 -103477684#3 -103477684#2 -103477684#0 -103477632#10 103477635#0 103477635#1 103477635#2 103477635#3 103477635#4 103477635#5 103477635#6 103477635#7 103477635#8 103477635#9 -1124385972 1124385971#8 1124385971#9 1128136253#0 1128136253#1 1128136253#2 1126641016#0 1126641016#1 1126641016#2 1452323647 1126703028 1314812923 103594700#0 103594700#1 103594700#2 -103594696#2 -995139901"/>
    </vehicle>
    <vehicle id="p_44" depart="66.00" departLane="best" departPos="random" departSpeed="max">
        <route edges="-103568942 -1173636057#0 105258719#7 105258719#9 105258719#10 -1309273789#2 -1309273789#1 -1309273789#0 -102945916#10 -102945916#9 -102945916#8 -102945916#6 -102945916#5 -102945916#4 -102023558#6 -102023558#5 -102023558#4 -102023558#3 -102023558#2 -102023558#0 1238811560 102023528#0 -102023589"/>
    </vehicle>
    <vehicle id="p_45" depart="67.50" departLane="best" departPos="random" departSpeed="max">
        <route edges="-103594704#1 103594704#1 103594704#2 -211860850#1 -211860850#0 -103594700#3 -103594700#2 -103594700#1 -103594700#0 1126633514#0 1126633514#1 1126633514#2 1126633514#3 1126633514#4 1344481867 1373625234 -104045544#5 -104045544#4 -104045544#2 -104045544#1 -104045544#0 104045582#0 104049639#0 104049639#1 104049639#2 104049639#3 104049639#4 104049639#5 104049639#6 -104184114#4 -104184114#3 -104184114#2 -104184114#1 -104184114#0 104184099#0 104184099#1 104184082#3 104184082#5 104184082#6 104203884 104203913#5 1173348715 1173348714#0 1173348714#1 1173348714#2 1173348714#3 1173348714#4 103593781#1"/>
    </vehicle>
    <vehicle id="p_46" depart="69.00" departLane="best" departPos="random" departSpeed="max">
        <route edges="105578124#1 105578134#1 27552926#7 -1061700731#1 -1061700731#0 -104227914#4 -104227914#3 -104227914#2 -104227914#1 -104227914#0 105258720#8 105258720#9 105258720#10 105258720#12 -190892041#7 -190892041#6 -190892041#4 -190892041#3 -190892041#2 -190892041#1 -190892041#0 -1173226154#7 -1173226154#6 -1173226154#2 -1173226154#1 -1173226154#0 1126837962 1126480699 1126475656 1029504351#0 1029504351#1 105258497#1 105258497#2 105258497#3 105258497#4 105258498#0 105258498#1 -105258495#2 -1173222489#1 -1173222489#0"/>
    </vehicle>
    <vehicle id="p_47" depart="70.50" departLane="best" departPos="random" departSpeed="max">
        <route edges="-103230511 103230511 52152298#3 52152298#4 103230617#0 103230617#1 103230617#2 103230617#3 1236569391#1 103230544#1 103477631#0 103477631#1 103477631#2 50219792#3 50219792#4 50219792#5 50219792#6 50219792#7 103230506#0 103230506#1 103230506#2 105258719#0 105258719#1 105258719#2 105258719#3 105258719#4 105258719#5 105258719#6 105258719#7 105258719#9 105258719#10 105258719#11 105258719#12 1087118363#0 1087118363#1 1087118363#3 1087118363#4 101999555#0 101999555#1 101999555#3 101999555#4 101999555#5 101999555#7 101999555#8 104311947#0 104311947#1 -104311933#1 -104311933#0 104311943#1 1029381531#8 1029381531#9 -1064332866#2 -1064332866#0 27552926#10 -105605197"/>
    </vehicle>
    <vehicle id="p_48" depart="72.00" departLane="best" departPos="random" departSpeed="max">
        <route edges="995135250 -101943131#0 102658965#3 102658965#4 102018272#0 102018272#1 102018272#2 1287633305 1174219169#1 1124394722 1174219174#0 1174219174#1 1174219174#2 1174215509 1174214864 -1174213097 -101999589#11 -101999589#10 -101999589#9 -101999589#8 -101999589#5 -101999589#4 -101999589#3 -101999589#2 -101999589#1 101999589#1"/>
    </vehicle>
    <vehicle id="p_49" depart="73.50" departLane="best" departPos="random" departSpeed="max">
        <route edges="52097266#0 1192799362#2 1192799362#3 1192799362#4 1124379135 1309033381 1102881628 1102881626#0 1102881626#1 1102881626#2 1193972495 1193972492#0 1193972492#1 1193972492#2 1193972492#3 1287633305 1174219169#1 1124394722 1174219174#0 1174219174#1 1174219174#2 1174215509 1174214862#0 1174214862#1 1174214862#2"/>
    </vehicle>
    <vehicle id="p_50" depart="75.00" departLane="best" departPos="random" departSpeed="max">
        <route edges="-101994113#1 -101994129#8 -101994129#7 -101994129#6 -101994129#5 -101994129#4 -101994129#3 -101994129#2 -101994129#1 -101994129#0 1174197318#1 1174197318#2 1174049311 1193989531 1193989532 1174049305#1 1174044692#1 1166212048 1127841752#0 1127841752#1 1127841752#2 1174034511 1174034513 1174037649 1174037651#0 1174037651#1 104789477#0 -104789492#3 -104789492#2 -104789492#1 -104789492#0 1390299830#15 -103185301#8 -103185301#5 -103185301#4 -103185301#2 -103185301#1 -103185301#0 104777754"/>
    </vehicle>
    <vehicle id="p_51" depart="76.50" departLane="best" departPos="random" departSpeed="max">
        <route edges="104700126#5 -104700126#5 -104700126#4 104700149#0 104700127#0 104700127#1 104700127#2 -1174037651#5 -1174037651#4 -1174037651#2 -1174037651#1 -1174037651#0 -1174037649 1174037652 1174034509 1174034510#0 1174034510#1 1166212047 1174044693#0 992291721#1 992291721#2 992291721#3 1193989528 1193989534#0 1174049307 1174049306#3 1174212172#0 1174197314 1174197315#0 1174197315#1 1174213093 105019216 1174215510 1174214863#0 1174214863#1 1174214863#3 102015151#0 102015151#1 102015151#2 102015151#3 102015151#4 102015151#5"/>
    </vehicle>
    <vehicle id="p_52" depart="78.00" departLane="best" departPos="random" departSpeed="max">