<?xml version="1.0" encoding="UTF-8"?>

<!-- generated on 2026-04-02 23:51:26.745047 by randomTrips.py UNKNOWN
<configuration>
    <net-file value="/home/vivek/research/NIT hackathon/final_year_project/sumo/networks/kolkata.net.xml"/>
    <route-file value="/home/vivek/research/NIT hackathon/final_year_project/sumo/routes/kolkata_freight.rou.xml"/>
    <prefix value="t_"/>
    <trip-attributes value="departLane=&quot;best&quot; departSpeed=&quot;max&quot; departPos=&quot;random&quot;"/>
    <vehicle-class value="truck"/>
    <seed value="123"/>
    <period value="8.0"/>
</configuration>
-->

<!-- generated on 2026-04-02 23:51:26 by Eclipse SUMO duarouter Version 1.18.0
<configuration xmlns:xsi="http://www.w3.org/2001/XMLSchema-instance" xsi:noNamespaceSchemaLocation="http://sumo.dlr.de/xsd/duarouterConfiguration.xsd">

    <input>
        <net-file value="/home/vivek/research/NIT hackathon/final_year_project/sumo/networks/kolkata.net.xml"/>
        <route-files value="trips.trips.xml"/>
    </input>

    <output>
        <output-file value="/home/vivek/research/NIT hackathon/final_year_project/sumo/routes/kolkata_freight.rou.xml"/>
        <alternatives-output value="NUL"/>
    </output>

    <time>
        <begin value="0.0"/>
        <end value="3600.0"/>
    </time>

    <report>
        <no-warnings value="true"/>
        <ignore-errors value="true"/>
        <no-step-log value="true"/>
    </report>

</configuration>
-->

<routes xmlns:xsi="http://www.w3.org/2001/XMLSchema-instance" xsi:noNamespaceSchemaLocation="http://sumo.dlr.de/xsd/routes_file.xsd">
    <vType id="t__truck" vClass="truck"/>
    <vehicle id="t_0" type="t__truck" depart="0.00" departLane="best" departPos="random" departSpeed="max">
        <route edges="-102825250#0 102825250#0 102825250#1 102825250#2 102825250#3 102825275#0 102825275#1 102825275#2 102192909#1 102192909#2 102192909#4 1309034477#1 239266478#0 239266478#1 239266478#2 239266478#3 239266478#4 1124385975#1 1124385975#2 1124385975#3 1124385975#4 1124385971#0 1124385971#1 1124385971#2 1124385971#3 1124385971#4 1124385971#5 1124385971#6 1124385971#7 1124385971#8 1124385971#9 1128136254 1126633512 52087651#0 52087651#1 52087651#2 52087651#3 52087651#4 52087651#5 52087651#6 52087651#8 52087651#9 52087651#10 1173862895 -103230578#3 -103230496"/>
    </vehicle>
    <vehicle id="t_1" type="t__truck" depart="8.00" departLane="best" departPos="random" departSpeed="max">
        <route edges="-1310146036 -1173585821 -103021802#8 101943136#0 101943136#1 -105258720#4 -105258720#3 -105258720#2 -105258720#0 -1087118363#4 -1087118363#3 -1087118363#1 -1087118363#0 105605179#0 -1173348713#0 -103593766#2 -103593766#1 -103593766#0 102945909#5 102945909#6 103568952#0 103568952#1 103568952#2 103568952#3 1111799487#0 1111799487#2 -102023543#8 -102023543#7 -102023543#6 -103477684#5 -103477684#4 -103477684#3 -103477684#2 -103477684#0 103477632#12 103477632#13 103477632#14 103477632#15 103477632#16 103477632#18 103477632#19 -103477632#19 -103477632#18 -103477632#16"/>
    </vehicle>
    <vehicle id="t_2" type="t__truck" depart="16.00" departLane="best" departPos="random" departSpeed="max">
        <route edges="1178082172 -1251109565#4 -1251109565#3 -1251109565#1 -1251109565#0 1251109567 1126641013#0 1126641013#1 1126641013#2 1388704703#0 -104045582#5 -104045582#4 -104045582#3 -104045582#2 -104045582#1 104049639#0 104049639#1 104049639#2 104049639#3 104049639#4 104049639#5 104049639#6 -103230612#6 -103230612#5 -103230612#4 -103230612#3 -103230612#0 -103477632#19 -103477632#18 -103477632#16 -103477632#15 -103477632#14 -103477632#13 -103477632#12 -103477632#10 -103477632#9 -103477632#7 -103477632#6 -103477632#5 -103477632#3 -103477632#2 -103477632#0 105258719#0 105258719#1 105258719#2 105258719#3 105258719#4 105258719#5 105258719#6 105258719#7 105258719#9 105258719#10 105258719#11 105258719#12 1087118363#0 1087118363#1 1087118363#3 102015135#1 102015135#2 102015135#3 102015135#4 102015135#5 102015135#7 102015135#8 102015135#9 102015135#10 102015135#12 102015135#13 102015135#14 1174214862#0 1174214862#1 -101943140 -101999589#5 -101999589#4 -101999589#3 -102018197"/>
    </vehicle>
    <vehicle id="t_3" type="t__truck" depart="24.00" departLane="best" departPos="random" departSpeed="max">
        <route edges="103212694#0 101972913#2 104043544#1 104043544#3 104043544#5 104043544#7 104043544#8 104043544#9 104043544#10 104043544#11 -1087118361#1 -1087118361#0 1132238886 52152366#0 52152366#1 52152366#2 52152366#3 52152366#4 52152366#5 1126641019#0 1126641019#1 1126641019#2 1126641019#4 1126641019#5 103230506#0 103230506#1 103230506#2 105258719#0 105258719#1 105258719#2 105258719#3 105258719#4 105258719#5 105258719#6 105258719#7 105258719#9 105258719#10 105258719#11 105258719#12 1087118363#0 1087118363#1 1087118363#3 1087118363#4 101999555#0 101999555#1 101999555#3 101999555#4 101999555#5 101999555#7 101999555#8 101999555#10 101999555#11 104311945#0 104311945#1 104311945#2 1029381531#2 -105605198#2 -105605198#1 105605171 105605194#1 -105605185"/>
    </vehicle>
    <vehicle id="t_4" type="t__truck" depart="32.00" departLane="best" departPos="random" departSpeed="max">
        <route edges="1127695805#0 1127695805#1 1127695805#2 992291721#1 992291721#2 992291721#3 1193989528 1193989534#0 1174049307 1174049306#3 1174212172#0 1174197314 1174197315#0 1174197315#1 1174213093 105019216 1174215510 1174214863#0 1174214863#1 1174214863#3 1174219170#0 1174219170#1 1193972494#0 1193972494#1 1193972494#2 1193972494#3 1193972494#4 1193972496 1309034477#0 1309034477#1 239266478#0 239266478#1 239266478#2 239266478#3 239266478#4 1124385975#1 1124385975#2 1124385975#3 1124385975#4 1124385971#0 1124385971#1 1124385971#2 1124385971#3 1124385971#4 1124385971#5 1124385971#6 1124385971#7 -1287998020 103477657#0 -103477631#1 -103477631#0 -103230544#1 -103230544#0 -1236569391#0 -103230617#2 -103230617#1 -103230617#0 52152298#6 52152298#7 -103230598#1 -103230598#0 -103212682#2 -103212682#1 -103212682#0 -1199688354#1 -1199688354#0 104043544#5 104043544#7 104043544#8 104043544#9 104043544#10 104043544#11 -104043544#11"/>
    </vehicle>
    <vehicle id="t_5" type="t__truck" depart="40.00" departLane="best" departPos="random" departSpeed="max">
        <route edges="-1087118363#4 -1087118363#3 -1087118363#1 -1087118363#0 105605179#0 -1173348713#0 -103593766#2 -103593766#1 -103593766#0 102945909#5 102945909#6 102945909#7 102945909#8 102945909#9 102945909#11 102945909#12 102945909#13 102945909#14 102945909#15 102945909#16 103568951#0 103568951#2 103568951#3 103568951#4 1322138629 1322138627 1124391489#6 1124391489#7 1126940575#1 105738779#1 105738779#2 -105738745#1 -105738745#0"/>
    </vehicle>
    <vehicle id="t_6" type="t__truck" depart="48.00" departLane="best" departPos="random" departSpeed="max">
        <route edges="-104789477#1 -104789477#0 -1174037651#1 -1174037651#0 -1174037649 1174037652 1174034509 1174034510#0 1174034510#1 1166212047 1174044693#0 992291721#1 992291721#2 992291721#3 1193989528 1193989534#0 1174049307 1174049306#3 1174212172#0 1174197314 1174197315#0 1174197315#1 1174213093 105019216 1174215510 1174214863#0 1174214863#1 1174214863#3 1174219170#0 1174219170#1 1193972494#0 1193972494#1 1193972494#2 1193972494#3 1193972494#4 101943160 1193972497#0 1193972497#2 1193972497#3 -102825250#3 -102825250#2 -102825250#1 -102825250#0 -101943131#1 -101943131#0"/>
    </vehicle>
    <vehicle id="t_7" type="t__truck" depart="56.00" departLane="best" departPos="random" departSpeed="max">
        <route edges="-995135242#0 -104227913#2 -104227913#0 -1124391474#0 103594716#0 103594716#1 103594716#2 103594716#4 103568951#0 -104184082#6 -104184082#5 -104184082#3 -104184099#1 -104184099#0 104184114#0 104184114#1 104184114#2 104184114#3 104184114#4 -104049639#6 -104049639#5 -104049639#4 -104049639#3 -104049639#2 -104049639#1 -104049639#0 -104045582#0 -103477652#1 -103477652#0 103594716#23 103594716#25 1128136254 1126633512 52087651#0 52087651#1 52087651#2 52087651#3 52087651#4 52087651#5 52087651#6 52152298#0 52152298#1 52152298#3 52152298#4 52152298#6 52152298#7 52152298#8 -103230498#1"/>
    </vehicle>
    <vehicle id="t_8" type="t__truck" depart="64.00" departLane="best" departPos="random" departSpeed="max">
        <route edges="103594699#3 103594699#4 -103594699#4 -103594699#3 103230617#2 103230617#3 1236569391#1 103230544#1 103477631#0 103477631#1 103477631#2 50219792#3 50219792#4 50219792#5 50219792#6 50219792#7 103230506#0 103230506#1 103230506#2 105258719#0 105258719#1 105258719#2 105258719#3 105258719#4 105258719#5 105258719#6 105258719#7 105258719#9 105258719#10 105258719#11 105258719#12 1087118363#0 1087118363#1 1087118363#3 102015135#1 102015135#2 102015135#3 102015135#4 -102953483#2 -102953483#1"/>
    </vehicle>
    <vehicle id="t_9" type="t__truck" depart="72.00" departLane="best" departPos="random" departSpeed="max">
        <route edges="-105738767#4 -105738767#3 105738767#3 105738767#4 1124374140#1 1124391495#0 -1322138628#0 -1322138629 -103568951#4 -103568951#3 -103568951#2 -103568951#0 -102945909#16 -102945909#15 -102945909#14 -102945909#13 -102945909#12 -102945909#11 -102945909#9 -102945909#8 -102945909#7 -102945909#6 -102945909#5 -102945909#2 -102945909#1 -102945909#0 -1309273789#2 -1309273789#1 -1309273789#0 -102945916#10 -102945916#9 -102945916#8 -102945916#6 -102945916#5 -102945916#4 -102945916#2 102945914#0 102945914#1 1392909746#10 1392909746#11 1287633305 1174219169#1 -540139649#7 -540139649#6 -540139649#5 -540139649#4"/>
    </vehicle>
    <vehicle id="t_10" type="t__truck" depart="80.00" departLane="best" departPos="random" departSpeed="max">
        <route edges="1179955338#0 -1179955338#0 1309273789#1 1309273789#2 102945909#0 102945909#1 102945909#2 102945909#5 102945909#6 103568952#0 103568952#1 103568952#2 103568952#3 1111799487#0 1111799487#2 -102023543#8 -102023543#7 -102023543#6 -103477684#5 -103477684#4 -103477684#3 -103477684#2 -103477684#0 -103477632#10 103477635#0 103477635#1 103477635#2 103477635#3 103477635#4 103477635#5 103477635#6 103477635#7 103477635#8 103477635#9 -1124385972 -1287998020 103477657#0 -103477631#1 -103477631#0 -103230544#1 -103230544#0"/>
    </vehicle>
    <vehicle id="t_11" type="t__truck" depart="88.00" departLane="best" departPos="random" departSpeed="max">
        <route edges="-103594716#13 -103594716#12 -104184037#3 -104184037#2 -104184037#0 -104184114#2 -104184114#1 -104184114#0 -104184080#2 -104184080#1 -104184080#0 1126611417#5 1124374140#0 1124374140#1 1124391495#0 1124391495#1 1124391495#2 1124391495#3 1124391495#5 1392015606 1464992585#1 1029381531#1 1029381531#2 -105605198#2 -105605198#1 105605171 105605194#1"/>
    </vehicle>
    <vehicle id="t_12" type="t__truck" depart="96.00" departLane="best" departPos="random" departSpeed="max">
        <route edges="-101999555#0 -1130841856#10 -1130841856#9 -1130841856#8 -1130841856#7 -1130841856#6 -1130841856#5 -1130841856#4 -1130841856#3 -1130841856#2 -1130841856#1 -1130841856#0 105019216 1174215510 1174214863#0 1174214863#1 1174214863#3 1174219170#0 1174219170#1 1193972494#0 1193972494#1 1193972494#2 1193972494#3 1193972494#4 101943160 1193972497#0 1193972497#2 1193972497#3 1193972497#4"/>
    </vehicle>
    <vehicle id="t_13" type="t__truck" depart="104.00" departLane="best" departPos="random" departSpeed="max">
        <route edges="103477657#1 -103477657#1 103477631#2 50219792#3 50219792#4 50219792#5 50219792#6 50219792#7 239266479#0 239266479#1 239266479#2 239266479#4 239266479#5 1124379135 1309033381 1102881628 1102881626#0 1102881626#1 1102881626#2 1193972495 1193972492#0 1193972492#1 1193972492#2 1193972492#3 1287633305 1174219169#1 1124394722 1174219174#0 1174219174#1 1174219174#2 1174215509 1174214864 1174213096 1174213095 1174197319 1174212170 1174197318#0 1174197318#1 1174197318#2 1174049311 1193989531 1193989532 1174049305#1 1174044692#1 1166212048 1127841752#0 1127841752#1 1127841752#2 -1174034514 -105019321#10 -105019321#9 -104777765#11 -104777765#10 -105019224#1 -105019224#0"/>
    </vehicle>
    <vehicle id="t_14" type="t__truck" depart="112.00" departLane="best" departPos="random" departSpeed="max">
        <route edges="1126480699 1126475656 1127867223 1126837965 1126837964 1126837963 1029504352 1126518488 1173226154#0 1173226154#1 1173226154#2 1173226154#6 1173226154#7 190892041#0 190892041#1 190892041#2 -105304973#3 -105304973#2 -105304973#1 -105304973#0 -1173241958 -105305006#4 105304986 105305038#1"/>
    </vehicle>
    <vehicle id="t_15" type="t__truck" depart="120.00" departLane="best" departPos="random" departSpeed="max">
        <route edges="-1130841856#10 1130841856#10 101999555#0 101999555#1 101999555#3 101999555#4 101999555#5 101999555#7 101999555#8 101999555#10 101999555#11 101999555#13 27552926#18 1127493386#2 1124391489#1 105738796#0 105738796#1 105738796#2 105738796#3"/>
    </vehicle>
    <vehicle id="t_16" type="t__truck" depart="128.00" departLane="best" departPos="random" departSpeed="max">
        <route edges="-104311968#6 -104311968#4 -104311968#3 -104311968#2 -104311968#1 -104311968#0 101999555#8 -104227913#6 -104227913#5 -104227913#3 -104227913#2 -104227913#0 -1124391474#0 103594716#0 103594716#1 103594716#2 103594716#4 103568951#0 -104184082#6 -104184082#5 -104184082#3 -104184099#1 -104184099#0 104184114#0 104184114#1 104184114#2 104184114#3 104184114#4 -104049639#6 -104049639#5 -104049639#4 -104049639#3 -104049639#2 -104049639#1 -104049639#0 -104045582#0 -103477652#1 -103477652#0 103594716#23 103594716#25 1128136253#0 1128136253#1 1128136253#2 1126641016#0 1126641016#1 1126641016#2 1452323647 1126703028 1314812923 103594700#0 103594700#1 103594700#2 103594700#3"/>
    </vehicle>
    <vehicle id="t_17" type="t__truck" depart="136.00" departLane="best" departPos="random" departSpeed="max">
        <route edges="103021802#0 -103021802#0 102015185#0 102015185#1 -102015135#3 -102953478#3 -102953478#2 -102953478#1 -102953478#0 -102953446#2 -102953446#1 -102953446#0 1309273789#2 102945909#0 102945909#1 102945909#2 102945909#5 102945909#6 102945909#7 102945909#8 102945909#9 102945909#11 102945909#12 102945909#13 102945909#14 102945909#15 102945909#16 103568951#0 103568951#2 103568951#3 103568951#4 1322138629 1322138627 1124391489#6 -105738767#4 -105738767#3 -105738767#2 -105738767#1 -105738767#0 -105741941#7 -105741941#6 -105741941#5 -105741941#4 -105741941#3 -105741941#2 -105741941#0 -105741953#3 -105741953#2 -105741953#1 -105741953#0 -102023538#1 105741950#1 105741950#2"/>
    </vehicle>
    <vehicle id="t_18" type="t__truck" depart="144.00" departLane="best" departPos="random" departSpeed="max">
        <route edges="-105738767#4 -105738767#3 105738767#3 105738767#4 1124374140#1 1124391495#0 -1322138628#0 -1322138629 -103568951#4 -103568951#3 -103568951#2 -103568951#0 -102945909#16 -102945909#15 -102945909#14 -102945909#13 -102945909#12 -102945909#11 -102945909#9 -102945909#8 -102945909#7 -102945909#6 -102945909#5 -102945909#2 -102945909#1 -102945909#0 105258719#11 105258719#12 1392909746#1 1392909746#2 1392909746#3 -1179955336#1"/>
    </vehicle>
    <vehicle id="t_19" type="t__truck" depart="152.00" departLane="best" departPos="random" departSpeed="max">
        <route edges="105305014 105305056#1 1173226154#6 1173226154#7 190892041#0 190892041#1 190892041#2 190892041#3 190892041#4 190892041#6 190892041#7 -105258720#12 -105258720#10 -105258720#9 -105258720#8 -105258720#7 -105258720#6 -105258720#5 -105258720#4 -105258720#3 -105258720#2 -105258720#0 -1130841856#10 -1130841856#9 -1130841856#8 -1130841856#7 -1130841856#6 -1130841856#5 -1130841856#4 -1130841856#3 -1130841856#2 -1130841856#1 -1130841856#0 105019216 1174215510 1174214863#0 1174214863#1 1174214863#3 1174219170#0 1174219170#1 1193972494#0 1193972494#1 1193972494#2 1193972494#3 1193972494#4 1193972492#0 1193972492#1 -102825277#6 -102825277#5 -102825277#3 -102825277#2 -102825277#1 102825277#1 102825277#2 102825277#3"/>
    </vehicle>
    <vehicle id="t_20" type="t__truck" depart="160.00" departLane="best" departPos="random" departSpeed="max">
        <route edges="104700126#6 104700143#0 104700143#1 104700143#2 104700143#3 104700143#4 104700143#5 104700127#0 104700127#1 104700127#2 -1174037651#5 -1174037651#4 -1174037651#2 -1174037651#1 -1174037651#0 -1174037649 1174037652 1174034509 1174034510#0 1174034510#1 1166212047 1174044693#0 992291721#1 992291721#2 992291721#3 1193989528 1193989534#0 1174049307 1174049306#3 1174212172#0 1174197314 1174197315#0 1174197315#1 1174213093 105019216 -102015135#14 -102015135#13 -102015135#12 -102015135#10 -102015135#9 -102015135#8 -102015135#7 -102015135#5 -102015135#4 -102015135#3 -102953478#3 -102953478#2 -102953478#1 -102953478#0 -102953446#2 -102953446#1 -102953446#0 1309273789#2 102945909#0 102945909#1 102945909#2 102945909#5 102945909#6 102945909#7 102945909#8 102945909#9 102945909#11 102945909#12 102945909#13 102945909#14 102945909#15 102945909#16 103568951#0 -104184082#6 -104184082#5 -104184082#3 -104184082#2 -104184082#0 104184037#2"/>
    </vehicle>
    <vehicle id="t_21" type="t__truck" depart="168.00" departLane="best" departPos="random" departSpeed="max">
        <route edges="104311948#2 -104311948#2 -104311968#6 -104311968#4 -104311968#3 -104311968#2 -104311968#1 -104311968#0 -101999555#7 -101999555#5 -101999555#4 -101999555#3 -101999555#1 -101999555#0 -1130841856#10 -1130841856#9 -1130841856#8 -1130841856#7 -1130841856#6 -1130841856#5 -1130841856#4 -1130841856#3 -1130841856#2 -1130841856#1 -1130841856#0 105019216 1174214862#0 1174214862#1 1174214862#2 1174214862#3"/>
    </vehicle>
    <vehicle id="t_22" type="t__truck" depart="176.00" departLane="best" departPos="random" departSpeed="max">
        <route edges="102023558#6 102945916#4 102945916#5 102945916#6 102945916#8 102945916#9 102945916#10 1309273789#0 1309273789#1 1309273789#2 105258719#11 105258719#12 1087118363#0 1087118363#1 1087118363#3 1087118363#4 101999555#0 101999555#1 101999555#3 101999555#4 101999555#5 101999555#7 104311968#0 104311942#1"/>
    </vehicle>
    <vehicle id="t_23" type="t__truck" depart="184.00" departLane="best" departPos="random" departSpeed="max">
        <route edges="-1178243917 104045599#2 103477627 50219792#1 50219792#2 50219792#3 50219792#4 50219792#5 50219792#6 50219792#7 103230506#0 103230506#1 103230506#2 105258719#0 105258719#1 105258719#2 105258719#3 105258719#4 105258719#5 105258719#6 105258719#7 105258719#9 105258719#10 105258719#11 105258719#12 1087118363#0 1087118363#1 1087118363#3 102015135#1 102015135#2 102015135#3 102015135#4 102015135#5 -102015135#5"/>
    </vehicle>
    <vehicle id="t_24" type="t__truck" depart="192.00" departLane="best" departPos="random" departSpeed="max">
        <route edges="105258516 105258498#4 105258492#2 105258492#3 105258492#4 105258492#5 52101402#2 52101402#4 52101394 1174037652 1174034509 1174034510#0 1174034510#1 1166212047 1174044693#0 992291721#1 992291721#2 992291721#3 1193989528 1193989534#0 1174049307 1174049306#3 1174212172#0 1174197314 1174197315#0 1174197315#1 1174213093 105019216 -102015135#14 -102015135#13 -102015135#12 -102015135#10 -102015135#9 -102015135#8 -102015135#7 -102015135#5 -102015135#4 -102015135#3 -102953478#3 -102953478#2 -102953478#1 -102953478#0 -102953446#2 -102953446#1 -102953446#0 1309273789#2 102945909#0 102945909#1 102945909#2 102945909#5 102945909#6 103568952#0 103568952#1 103568952#2 103568952#3 1111799487#0 1111799487#2 -102023543#8 -102023543#7 -102023543#6 -102023543#4 -102023543#3 -102023543#2 -102023543#0 103594716#11 -104184037#3 -104184037#2 -104184037#0 -104184114#2"/>
    </vehicle>
    <vehicle id="t_25" type="t__truck" depart="200.00" departLane="best" departPos="random" departSpeed="max">
        <route edges="1087118361#2 -1087118361#2 -1087118361#1 -1087118361#0 1132238886 -52152298#16 -52152298#15 -52152298#14 -52152298#13 -52152298#12 -52152298#11 -52152298#10 -52152298#8 -52152298#7 -52152298#6 103230617#0 103230617#1 103230617#2 103230617#3 1236569391#1 103230544#1 103477631#0 103477631#1 -103477657#0 1287998020 1124385971#8 -103477627 -103594716#23 103477652#0 103477652#1 104045582#0 104045582#1 -1199407162 1199407162"/>
    </vehicle>
    <vehicle id="t_26" type="t__truck" depart="208.00" departLane="best" departPos="random" departSpeed="max">
        <route edges="104227920 -104227905#1 1127490941#3 -1124391474#3 -1124391474#2 -1124391474#0 103594716#0 103594716#1 103594716#2 103594716#4 103568951#0 -104184082#6 -104184082#5 -104184082#3 -104184099#1 -104184099#0 104184114#0 104184114#1 104184114#2 104184114#3 104184114#4 -104049639#6 -104049639#5 -104049639#4 -104049639#3 -104049639#2 -104049662#9 -104049662#8 -104049662#7 -104049662#6 -104049662#4"/>
    </vehicle>
    <vehicle id="t_27" type="t__truck" depart="216.00" departLane="best" departPos="random" departSpeed="max">
        <route edges="-1087118363#3 1087118363#3 102015135#1 102015135#2 102015135#3 102015135#4 102015135#5 102015135#7 102015135#8 102015135#9 102015135#10 102015135#12 102015135#13 102015135#14 1174214862#0 1174214862#1 1174214862#2 1174214862#3 1174214862#4 1174214862#5 1174214862#6 540134654#0 540134654#1 540134654#2 540134654#4 540134654#5 -540134654#5 -540134654#4 -540134654#2 -540134654#1 -540134654#0 -1174214862#6 -1174214862#5"/>
    </vehicle>
    <vehicle id="t_28" type="t__truck" depart="224.00" departLane="best" departPos="random" departSpeed="max">
        <route edges="-103021802#7 -103021802#5 -103021802#3 -103021802#1 -103021802#0 102015185#0 102015185#1 -102015135#3 -102953478#3 -102953478#2 101943121#2"/>
    </vehicle>
    <vehicle id="t_29" type="t__truck" depart="232.00" departLane="best" departPos="random" departSpeed="max">
        <route edges="103477657#0 -103477657#0 1287998020 1124385971#8 -103477627 -103594716#23 103477652#0 103477652#1 104045582#0 104049639#0 104049639#1 104049639#2 104049639#3 104049639#4 104049639#5 104049639#6 -104184114#4 -104184114#3 -104184114#2 -104184114#1 -104184114#0 -104184080#2 -104184080#1 -104184080#0 1126611417#5 1124374140#0 -105738767#4 -105738767#3 -105738767#2 -105738767#1 -105738767#0"/>
    </vehicle>
    <vehicle id="t_30" type="t__truck" depart="240.00" departLane="best" departPos="random" departSpeed="max">
        <route edges="-104227914#4 -104227914#3 -104227914#2 -104227914#1 -104227914#0 -105258720#7 -105258720#6 -105258720#5 -105258720#4 -105258720#3 -105258720#2 -105258720#0 -1130841856#10 -1130841856#9 -1130841856#8 -1130841856#7 -1130841856#6 -1130841856#5 -1130841856#4 -1130841856#3 -1130841856#2 -1130841856#1 -1130841856#0 105019216 1174215510 1174214863#0 1174214863#1 1174214863#3 1174219170#0 1174219170#1 1193972494#0 1193972494#1 1193972494#2 1193972494#3 1193972494#4 1193972496 1309034477#0 1309034477#1 239266478#0 239266478#1 239266478#2 239266478#3 239266478#4 1124385975#1 1124385975#2 1124385975#3 1124385975#4 1124385971#0 1124385971#1 1124385971#2 -103477666 -103477633#2 -103477615 103230597#0 103230597#1 1173861153#1 103230503#0 -103230503#0"/>
    </vehicle>
    <vehicle id="t_31" type="t__truck" depart="248.00" departLane="best" departPos="random" departSpeed="max">
        <route edges="104049674#2 -104049674#2 -104049674#1 -104049674#0 -104045582#3 -104045582#2 -104045582#1 -104045582#0 -103477652#1 -103477652#0 103594716#23 103594716#25 1128136254 1126633512 52087651#0 52087651#1 52087651#2 52087651#3 52087651#4 52087651#5 52087651#6 52152298#0 52152298#1 52152298#3 52152298#4 52152298#6 52152298#7 -103230598#1 -103230598#0 -103212682#2 -103212682#1 -103212682#0 -1199688354#1 -1199688354#0 104043544#5 101972889 -101972876#2"/>
    </vehicle>
    <vehicle id="t_32" type="t__truck" depart="256.00" departLane="best" departPos="random" departSpeed="max">
        <route edges="-1173263561#1 1179979756 -104777725#15 -104777725#13 -104777725#12 -104777725#11 -104777725#9 -104777725#8 -104777725#7 -104777725#5 -104777725#4 -104777725#3 -104777725#2 1127845532#8 1127845532#9 -105258720#12 -105258720#10 -105258720#9 -105258720#8 104227914#0 104227914#1 104227914#2 104227914#3 -104227921#2 -104700125"/>
    </vehicle>
    <vehicle id="t_33" type="t__truck" depart="264.00" departLane="best" departPos="random" departSpeed="max">
        <route edges="103185301#8 -1390299830#15 -1390299830#14 -1174037651#5 -1174037651#4 -1174037651#2 -1174037651#1 -1174037651#0 -1174037649 1174037652 1174034509 1174034510#0 1174034510#1 1166212047 1174044693#0 1127845532#0 105019239#1"/>
    </vehicle>
    <vehicle id="t_34" type="t__truck" depart="272.00" departLane="best" departPos="random" departSpeed="max">
        <route edges="1193972492#2 1193972492#3 1193972494#0 1193972494#1 1193972494#2 1193972494#3 1193972494#4 1193972496 1309034477#0 1309034477#1 239266478#0 239266478#1 52097270#0 52097270#1 52097270#2 52097270#3 52097270#4 52097270#5 52097270#6 52097270#7 52097270#8 52097270#9 103477632#0 103477632#2 103477632#3 103477632#5 103477632#6 103477632#7 103477632#9 103477632#10 103477632#12 103477632#13 103477632#14 103477632#15 103477632#16 103477632#18 103477632#19 103230612#0 103230612#3 103230612#4 103230612#5 103230612#6 103230612#8 103230612#9 103230612#10 103230612#11 103230612#12 103230612#13 104184038#0"/>
    </vehicle>
    <vehicle id="t_35" type="t__truck" depart="280.00" departLane="best" departPos="random" departSpeed="max">
        <route edges="689137124 1126641016#1 1126641016#2 1452323647 1126703028 1314812923 1126633514#0 1126633514#1 1126633514#2 1126633514#3 1126633514#4 1344481867 1126633513 50219792#0 50219792#1"/>
    </vehicle>
    <vehicle id="t_36" type="t__truck" depart="288.00" departLane="best" departPos="random" departSpeed="max">
        <route edges="104184017#1 -104184114#1 -104184114#0 104184099#0 104184099#1 104184082#3 104184082#5 104184082#6 -103568951#0 -102945909#16 -102945909#15 -102945909#14 -102945909#13 -102945909#12 -102945909#11 -102945909#9 -102945909#8 -102945909#7 -102945909#6 -102945909#5 -102945909#2 -102945909#1 -102945909#0 105258719#11 105258719#12 1087118363#0 1087118363#1 1087118363#3 1087118363#4 105258720#0 105258720#2 105258720#3 105258720#4 105258720#5 105258720#6 105258720#7 105258720#8 105258720#9 105258720#10 105258720#12 103010038#1 103010038#2 103010038#3 -104700136"/>
    </vehicle>
    <vehicle id="t_37" type="t__truck" depart="296.00" departLane="best" departPos="random" departSpeed="max">
        <route edges="102023553#0 102023553#1 102023553#2 102023553#3 102023553#4 105258719#10 102945909#0 102945909#1 102945909#2 102945909#5 102945909#6 102945909#7 102945909#8 102945909#9 102945909#11 102945909#12 102945909#13 102945909#14 102945909#15 102945909#16 103568951#0 -104184082#6 -104184082#5 104184073#0 104184073#1 104184073#2 104184073#3 104184073#4 -104184073#4 -104184073#3 -104184073#2"/>
    </vehicle>
    <vehicle id="t_38" type="t__truck" depart="304.00" departLane="best" departPos="random" departSpeed="max">
        <route edges="693286158 103572007#0 103572007#1 103574982#1 103574982#2 103574982#3 103574982#4 -102945909#9 -102945909#8 -102945909#7 -102945909#6 -102945909#5 -102945909#2 -102945909#1 -102945909#0 105258719#11 105258719#12 1087118363#0 1087118363#1 1087118363#3 102015135#1 102015135#2 102015135#3 102015135#4 102015135#5 102015135#7 102015135#8 102015135#9 102015135#10 102015135#12 102015135#13 102015135#14 1174214864 1174213096 1174213095 1174197319 1174212170 1174197318#0 1174197318#1 1174197318#2 1174049311 1193989531 1193989532 1174049305#1 1174044692#1 -1127684589#3 -1127684589#2 -1127684590#4 -1127684590#3 -1127684590#2 -52152406#3 -52152406#2 -52152406#1 -52152406#0"/>
    </vehicle>
    <vehicle id="t_39" type="t__truck" depart="312.00" departLane="best" departPos="random" departSpeed="max">
        <route edges="105258504#1 -105258504#1 52101402#4 52101394 1174037652 1174034509 1174034510#0 1174034510#1 1166212047 1174044693#0 992291721#1 992291721#2 992291721#3 1193989528 1193989534#0 1174049307 1174049306#3 1174212172#0 1174197314 1174197315#0 1174197315#1 1174213093 105019216 1174215510 1174214863#0 1174214863#1 1174214863#3 1174219170#0 1174219170#1 1193972494#0 1193972494#1 1193972494#2 1193972494#3 102023565#0 102023565#1 102023565#2 -102023558#2"/>
    </vehicle>
    <vehicle id="t_40" type="t__truck" depart="320.00" departLane="best" departPos="random" departSpeed="max">
        <route edges="-103594693 -211860850#5 -103594705 103594721#1 103594720#4 103594712#0 103594712#1 103594712#2 103594695#1 1126633514#4 1344481867 1126633513 50219792#0 50219792#1 50219792#2 50219792#3 50219792#4 50219792#5 50219792#6 50219792#7 103230506#0 103230506#1 103230506#2 105258719#0 105258719#1 105258719#2 105258719#3 105258719#4 105258719#5 105258719#6 105258719#7 105258719#9 105258719#10 105258719#11 105258719#12 1087118363#0 1087118363#1 1087118363#3 1087118363#4 105258720#0 105258720#2 105258720#3 105258720#4 105258720#5 105258720#6 105258720#7 104227914#0 104227914#1 104227914#2 -104227904#1"/>
    </vehicle>
    <vehicle id="t_41" type="t__truck" depart="328.00" departLane="best" departPos="random" departSpeed="max">